                                   MODFLOW 6
                U.S. GEOLOGICAL SURVEY MODULAR HYDROLOGIC MODEL
                          GROUNDWATER FLOW MODEL (GWF)
                            VERSION 6.1.2 06/15/2020
                               ***DEVELOP MODE***

   MODFLOW 6 compiled Aug 03 2020 12:21:56 with IFORT compiler (ver. 19.0.4)

This software is preliminary or provisional and is subject to 
revision. It is being provided to meet the need for timely best 
science. The software has not received final approval by the U.S. 
Geological Survey (USGS). No warranty, expressed or implied, is made 
by the USGS or the U.S. Government as to the functionality of the 
software and related material nor shall the fact of release 
constitute any such warranty. The software is provided on the 
condition that neither the USGS nor the U.S. Government shall be held 
liable for any damages resulting from the authorized or unauthorized 
use of the software.


System command used to initiate simulation:
mf6

MODFLOW was compiled using uniform precision.

Real Variables
  KIND: 8
  TINY (smallest non-zero value):    2.225074-308
  HUGE (largest value):    1.797693+308
  PRECISION: 15
  BIT SIZE: 64

Integer Variables
  KIND: 4
  HUGE (largest value): 2147483647
  BIT SIZE: 32

Long Integer Variables
  KIND: 8
  HUGE (largest value): 9223372036854775807
  BIT SIZE: 64

Logical Variables
  KIND: 4
  BIT SIZE: 32
 

 OPENED freyberg6.dis
 FILE TYPE:DIS6                   UNIT 1005   STATUS:OLD                 
 FORMAT:FORMATTED              ACCESS:SEQUENTIAL          
 ACTION:READ                


 OPENED freyberg6.ic
 FILE TYPE:IC6                    UNIT 1006   STATUS:OLD                 
 FORMAT:FORMATTED              ACCESS:SEQUENTIAL          
 ACTION:READ                


 OPENED freyberg6.npf
 FILE TYPE:NPF6                   UNIT 1007   STATUS:OLD                 
 FORMAT:FORMATTED              ACCESS:SEQUENTIAL          
 ACTION:READ                


 OPENED freyberg6.sto
 FILE TYPE:STO6                   UNIT 1008   STATUS:OLD                 
 FORMAT:FORMATTED              ACCESS:SEQUENTIAL          
 ACTION:READ                


 OPENED freyberg6.oc
 FILE TYPE:OC6                    UNIT 1009   STATUS:OLD                 
 FORMAT:FORMATTED              ACCESS:SEQUENTIAL          
 ACTION:READ                


 OPENED freyberg6.wel
 FILE TYPE:WEL6                   UNIT 1010   STATUS:OLD                 
 FORMAT:FORMATTED              ACCESS:SEQUENTIAL          
 ACTION:READ                


 OPENED freyberg6.rch
 FILE TYPE:RCH6                   UNIT 1011   STATUS:OLD                 
 FORMAT:FORMATTED              ACCESS:SEQUENTIAL          
 ACTION:READ                


 OPENED freyberg6.ghb
 FILE TYPE:GHB6                   UNIT 1012   STATUS:OLD                 
 FORMAT:FORMATTED              ACCESS:SEQUENTIAL          
 ACTION:READ                


 OPENED freyberg6.sfr
 FILE TYPE:SFR6                   UNIT 1013   STATUS:OLD                 
 FORMAT:FORMATTED              ACCESS:SEQUENTIAL          
 ACTION:READ                


 OPENED head.obs
 FILE TYPE:OBS6                   UNIT 1014   STATUS:OLD                 
 FORMAT:FORMATTED              ACCESS:SEQUENTIAL          
 ACTION:READ                

 NAMEFILE OPTIONS:
    NEWTON-RAPHSON method enabled for the model.

 DIS -- STRUCTURED GRID DISCRETIZATION PACKAGE, VERSION 2 : 3/27/2014 - INPUT READ FROM UNIT 1005


 PROCESSING DISCRETIZATION OPTIONS
    MODEL LENGTH UNIT IS METERS
 END OF DISCRETIZATION OPTIONS
 PROCESSING DISCRETIZATION DIMENSIONS
    NLAY =       3
    NROW =      40
    NCOL =      20
 END OF DISCRETIZATION DIMENSIONS
 PROCESSING GRIDDATA

                     DELR =   250.0000    

                     DELC =   250.0000    

 TOP ELEVATION OF LAYER 1

            1       2       3       4       5       6       7       8       9      10      11      12      13      14      15
           16      17      18      19      20
 ............................................................................................................................
   1     41.4    41.3    41.2    41.0    40.7    40.4    40.1    39.8    39.4    39.1    38.7    38.4    38.1    37.7    37.3
         36.8    37.0    37.0    37.1    37.1
   2     41.4    41.3    41.2    41.0    40.7    40.4    40.1    39.8    39.4    39.1    38.7    38.4    38.0    37.7    37.3
         36.8    37.0    37.0    37.1    37.1
   3     41.4    41.4    41.2    41.0    40.7    40.4    40.1    39.8    39.4    39.0    38.7    38.3    38.0    37.6    37.3
         36.8    36.9    37.0    37.1    37.1
   4     41.5    41.4    41.2    41.0    40.7    40.5    40.1    39.7    39.4    39.0    38.6    38.3    37.9    37.6    37.2
         36.8    36.9    37.0    37.0    37.1
   5     41.5    41.5    41.3    41.1    40.8    40.4    40.1    39.7    39.3    38.9    38.5    38.2    37.9    37.5    37.2
         36.8    36.9    37.0    37.0    37.0
   6     41.6    41.5    41.4    41.1    40.8    40.5    40.1    39.6    39.2    38.8    38.4    38.1    37.8    37.5    37.1
         36.7    36.8    36.9    36.9    37.0
   7     41.7    41.6    41.5    41.2    40.9    40.5    40.0    39.5    39.1    38.6    38.3    38.0    37.7    37.4    37.1
         36.7    36.8    36.8    36.9    36.9
   8     41.8    41.7    41.6    41.4    40.9    40.5    40.0    39.3    38.9    38.4    38.1    37.9    37.6    37.3    37.0
         36.6    36.7    36.8    36.8    36.9
   9     41.9    41.9    41.8    41.7 -1050.0 -1050.0 -1050.0    38.9    38.5    38.2    38.0    37.7    37.5    37.2    36.9
         36.5    36.5    36.7    36.7    36.8
  10     42.0    42.0    42.0    41.9 -1050.0 -1050.0 -1050.0 -1050.0    38.2    38.0    37.8    37.6    37.3    37.0    36.8
         36.4    36.3    36.5    36.7    36.7
  11     42.1    42.1    42.1    42.1 -1050.0 -1050.0 -1050.0 -1050.0    37.9    37.8    37.6    37.4    37.2    36.9    36.7
         36.4    36.5    36.6    36.7    36.7
  12     42.1    42.1    42.1    42.1 -1050.0 -1050.0 -1050.0 -1050.0    37.7    37.7    37.5    37.3    37.0    36.6    36.6
         36.4    36.5    36.6    36.7    36.7
  13     42.1    42.1    42.1    42.1 -1050.0 -1050.0 -1050.0 -1050.0    37.6    37.5    37.4    37.2    37.0    36.8    36.6
         36.4    36.6    36.6    36.7    36.7
  14     42.1    42.1    42.1    42.1 -1050.0 -1050.0 -1050.0 -1050.0    37.5    37.5    37.3    37.2    37.0    36.8    36.7
         36.4    36.6    36.7    36.7    36.7
  15     42.0    42.0    42.0    42.0 -1050.0 -1050.0 -1050.0 -1050.0    37.5    37.4    37.3    37.2    37.0    36.9    36.7
         36.4    36.6    36.7    36.7    36.7
  16     41.9    41.9    41.8    41.8 -1050.0 -1050.0 -1050.0 -1050.0    37.4    37.4    37.3    37.2    37.0    36.8    36.7
         36.4    36.6    36.7    36.7    36.7
  17     41.7    41.7    41.7    41.7 -1050.0 -1050.0 -1050.0 -1050.0    37.4    37.3    37.2    37.1    37.0    36.8    36.7
         36.4    36.6    36.6    36.7    36.7
  18     41.5    41.5    41.4    41.5 -1050.0 -1050.0 -1050.0 -1050.0    37.3    37.3    37.2    37.1    37.0    36.8    36.6
         36.4    36.5    36.6    36.7    36.7
  19     41.2    41.2    41.2    41.2 -1050.0 -1050.0 -1050.0 -1050.0    37.3    37.3    37.2    37.1    36.9    36.7    36.6
         36.4    36.5    36.6    36.7    36.7
  20     41.0    40.9    40.9    40.9 -1050.0 -1050.0 -1050.0 -1050.0    37.3    37.3    37.2    37.0    36.9    36.7    36.5
         36.3    36.5    36.6    36.6    36.7
  21     40.6    40.6    40.6    40.6 -1050.0 -1050.0 -1050.0 -1050.0    37.4    37.3    37.2    37.0    36.8    36.6    36.2
         36.3    36.4    36.6    36.6    36.7
  22     40.3    40.3    40.2    40.2 -1050.0 -1050.0    37.7    37.6    37.4    37.3    37.2    37.0    36.8    36.6    36.4
         36.3    36.4    36.5    36.6    36.6
  23     40.0    39.9    39.8    39.7    39.3 -1050.0    37.8    37.7    37.5    37.3    37.1    37.0    36.8    36.7    36.5
         36.3    36.4    36.5    36.6    36.6
  24     39.7    39.6    39.5    39.3    39.0    38.4    38.0    37.7    37.5    37.3    37.1    37.0    36.8    36.7    36.5
         36.3    36.4    36.5    36.6    36.6
  25     39.4    39.3    39.2    39.0    38.7    38.3    38.0    37.7    37.4    37.2    37.0    36.9    36.8    36.6    36.5
         36.3    36.4    36.5    36.6    36.6
  26     39.1    39.0    38.9    38.7    38.4    38.1    37.9    37.6    37.4    37.1    36.9    36.8    36.7    36.6    36.5
         36.3    36.4    36.5    36.6    36.6
  27     38.8    38.8    38.6    38.5    38.2    38.0    37.7    37.5    37.2    37.0    36.6    36.7    36.7    36.6    36.4
         36.3    36.4    36.5    36.5    36.6
  28     38.6    38.5    38.4    38.2    38.0    37.8    37.5    37.3    37.1    36.9    36.7    36.7    36.6    36.5    36.4
         36.2    36.4    36.4    36.5    36.5
  29     38.4    38.3    38.2    38.0    37.8    37.5    37.3    37.1    37.0    36.9    36.7    36.7    36.6    36.5    36.4
         36.2    36.3    36.4    36.5    36.5
  30     38.2    38.1    38.0    37.8    37.6    37.3    36.8    36.9    36.9    36.8    36.7    36.6    36.5    36.4    36.3
         36.2    36.3    36.4    36.4    36.5
  31     38.1    38.0    37.8    37.7    37.4    37.2    37.0    36.9    36.8    36.7    36.6    36.5    36.4    36.3    36.3
         36.1    36.3    36.3    36.4    36.4
  32     38.0    37.8    37.7    37.5    37.3    37.1    36.9    36.8    36.7    36.6    36.5    36.4    36.3    36.2    36.2
         36.1    36.2    36.3    36.3    36.4
  33  -1050.0    37.7    37.5    37.3    37.1    36.9    36.8    36.6    36.5    36.4    36.3    36.2    36.1    36.1    36.1
         36.0    36.2    36.2    36.3    36.3
  34  -1050.0 -1050.0    37.3    37.1    36.9    36.7    36.6    36.4    36.3    36.2    36.1    36.0    35.9    35.9    36.0
         36.0    36.1    36.2    36.2    36.3
  35  -1050.0 -1050.0 -1050.0    36.9    36.6    36.5    36.3    36.2    36.1    35.9    35.8    35.7    35.4    35.7    35.8
         35.9    36.0    36.1    36.2    36.2
  36  -1050.0 -1050.0 -1050.0 -1050.0    36.3    36.2    36.0    35.9    35.8    35.7    35.6    35.5    35.5    35.6    35.7
         35.8    35.9    36.0    36.1 -1050.0
  37  -1050.0 -1050.0 -1050.0 -1050.0    36.1    35.8    35.6    35.5    35.4    35.4    35.3    35.3    35.3    35.4    35.5
         35.7    35.8    35.9    36.0 -1050.0
  38  -1050.0 -1050.0 -1050.0 -1050.0 -1050.0    35.3    35.2    35.1    35.1    35.0    35.0    35.0    35.0    35.1    35.3
         35.6    35.7    35.9 -1050.0 -1050.0
  39  -1050.0 -1050.0 -1050.0 -1050.0 -1050.0    34.7    34.7    34.7    34.7    34.6    34.6    34.6    34.7    34.7    35.0
         35.5    35.6 -1050.0 -1050.0 -1050.0
  40  -1050.0 -1050.0 -1050.0 -1050.0 -1050.0    34.1    34.1    34.1    34.1    34.1    34.1    34.1    34.1    34.1    34.1
         34.1 -1050.0 -1050.0 -1050.0 -1050.0

   MODEL LAYER BOTTOM EL. =   32.50000     FOR LAYER 1

   MODEL LAYER BOTTOM EL. =   30.00000     FOR LAYER 2

   MODEL LAYER BOTTOM EL. FOR LAYER 3

            1       2       3       4       5       6       7       8       9      10      11      12      13      14      15
           16      17      18      19      20
 ............................................................................................................................
   1      8.9     8.7     8.4     8.0     7.6     7.2     6.6     6.1     5.5     5.0     4.6     4.5     4.5     4.7     5.0
          5.3     5.5     5.6     5.6     5.5
   2      9.2     9.0     8.7     8.3     7.9     7.4     6.8     6.2     5.5     4.7     4.2     4.1     4.2     4.6     5.0
          5.3     5.6     5.7     5.6     5.5
   3      9.6     9.4     9.1     8.7     8.2     7.7     7.1     6.4     5.5     4.6     3.7     3.6     4.0     4.4     4.9
          5.4     5.8     5.8     5.6     5.5
   4     10.0     9.8     9.5     9.1     8.6     8.1     7.4     6.7     5.9     4.8     3.0     3.5     3.9     4.3     4.8
          5.4     6.0     5.7     5.5     5.3
   5     10.5    10.3    10.0     9.6     9.1     8.5     7.8     7.1     6.5     6.0     4.4     3.9     4.0     4.2     4.6
          5.0     5.4     5.4     5.2     5.1
   6     11.0    10.8    10.5    10.1     9.5     8.9     8.2     7.4     6.8     6.0     5.0     4.3     4.1     4.1     4.3
          4.5     4.8     4.8     4.8     4.8
   7     11.5    11.4    11.1    10.6    10.0     9.2     8.4     7.6     6.8     6.0     5.2     4.5     4.1     3.9     3.9
          4.0     4.2     4.3     4.4     4.5
   8     12.1    12.0    11.8    11.2    10.5     9.6     8.7     7.7     6.8     5.9     5.1     4.4     4.0     3.7     3.5
          3.5     3.7     3.9     4.0     4.1
   9     12.6    12.7    12.4    11.8    10.9     9.9     8.8     7.7     6.7     5.8     5.0     4.3     3.7     3.4     3.2
          3.0     3.3     3.5     3.7     3.8
  10     13.0    13.3    13.2    12.4    11.2    10.0     8.8     7.7     6.6     5.6     4.7     4.0     3.4     3.1     2.9
          2.9     3.0     3.2     3.4     3.6
  11     13.1    13.5    14.0    12.6    11.2     9.9     8.7     7.5     6.3     5.3     4.4     3.6     3.0     2.8     2.7
          2.7     2.8     3.0     3.2     3.4
  12     12.8    13.1    13.0    12.1    10.9     9.6     8.4     7.1     6.0     4.9     4.0     3.2     2.7     2.5     2.5
          2.5     2.7     2.9     3.1     3.2
  13     12.3    12.3    12.1    11.4    10.3     9.2     8.0     6.8     5.6     4.5     3.5     2.8     2.3     2.2     2.3
          2.4     2.6     2.8     3.0     3.1
  14     11.7    11.6    11.2    10.6     9.7     8.6     7.5     6.3     5.2     4.0     3.0     2.2     1.9     1.9     2.1
          2.3     2.5     2.8     3.0     3.1
  15     11.1    10.9    10.5     9.8     9.0     8.1     7.0     5.9     4.8     3.7     2.6     1.5     1.6     1.8     2.0
          2.3     2.5     2.8     3.0     3.1
  16     10.5    10.2     9.8     9.2     8.4     7.5     6.6     5.5     4.5     3.5     2.5     1.8     1.6     1.7     1.9
          2.2     2.6     2.9     3.0     3.0
  17      9.9     9.6     9.2     8.6     7.9     7.1     6.2     5.2     4.3     3.4     2.6     2.0     1.7     1.7     1.9
          2.2     2.6     3.0     3.0     3.0
  18      9.4     9.1     8.7     8.1     7.4     6.7     5.9     5.0     4.1     3.3     2.6     2.1     1.8     1.7     1.8
          2.1     2.4     2.7     2.8     2.8
  19      9.0     8.7     8.2     7.7     7.1     6.4     5.6     4.8     4.0     3.2     2.6     2.1     1.7     1.6     1.7
          1.9     2.2     2.4     2.5     2.6
  20      8.6     8.3     7.9     7.4     6.8     6.1     5.4     4.6     3.8     3.1     2.5     2.0     1.7     1.5     1.6
          1.8     2.0     2.2     2.3     2.4
  21      8.2     7.9     7.5     7.1     6.5     5.9     5.2     4.5     3.7     3.0     2.4     1.9     1.6     1.5     1.5
          1.6     1.8     2.0     2.1     2.2
  22      8.0     7.7     7.3     6.9     6.4     5.8     5.1     4.4     3.6     2.9     2.2     1.7     1.5     1.4     1.4
          1.5     1.7     1.8     1.9     2.0
  23      7.8     7.5     7.2     6.7     6.3     5.7     5.1     4.4     3.6     2.9     2.1     1.5     1.4     1.4     1.4
          1.5     1.6     1.7     1.8     1.8
  24      7.6     7.3     7.0     6.7     6.2     5.7     5.1     4.4     3.7     2.9     2.2     1.7     1.5     1.4     1.4
          1.4     1.5     1.6     1.6     1.7
  25      7.4     7.2     6.9     6.6     6.3     5.8     5.3     4.6     3.8     3.0     2.3     1.9     1.6     1.4     1.4
          1.3     1.4     1.4     1.5     1.6
  26      7.2     7.1     6.8     6.6     6.3     6.0     5.6     4.9     4.0     3.0     2.5     2.0     1.7     1.5     1.3
          1.3     1.3     1.3     1.4     1.5
  27      7.1     6.9     6.8     6.6     6.4     6.1     5.9     5.4     4.5     3.5     2.7     2.2     1.8     1.5     1.3
          1.2     1.2     1.2     1.2     1.3
  28      6.9     6.8     6.6     6.5     6.3     6.2     6.1     6.0     4.8     3.7     2.9     2.3     1.8     1.4     1.2
          1.1     1.0     1.0     1.1     1.2
  29      6.8     6.6     6.5     6.3     6.2     6.0     5.8     5.4     4.6     3.7     2.9     2.2     1.7     1.4     1.1
          0.9     0.9     0.9     1.0     1.1
  30      6.6     6.4     6.3     6.1     5.9     5.7     5.4     5.0     4.3     3.5     2.7     2.1     1.6     1.2     0.9
          0.8     0.7     0.7     0.8     1.0
  31      6.4     6.2     6.1     5.9     5.7     5.4     5.0     4.5     3.9     3.2     2.4     1.8     1.3     1.0     0.7
          0.6     0.5     0.6     0.7     0.9
  32      6.2     6.0     5.9     5.7     5.4     5.1     4.7     4.2     3.5     2.8     2.1     1.4     1.0     0.7     0.5
          0.5     0.4     0.5     0.6     0.8
  33      6.0     5.8     5.7     5.4     5.1     4.8     4.4     3.9     3.2     2.5     1.7     1.0     0.6     0.5     0.4
          0.3     0.4     0.5     0.6     0.7
  34      5.8     5.6     5.4     5.2     4.9     4.6     4.2     3.7     3.0     2.2     1.4     0.5     0.3     0.3     0.2
          0.2     0.3     0.4     0.6     0.7
  35      5.6     5.5     5.3     5.0     4.7     4.4     4.0     3.5     3.0     2.1     1.2     0.5     0.2     0.2     0.2
          0.2     0.3     0.4     0.6     0.7
  36      5.5     5.3     5.1     4.9     4.6     4.2     3.8     3.4     2.8     2.0     1.2     0.5     0.2     0.1     0.1
          0.2     0.3     0.4     0.6     0.7
  37      5.3     5.2     4.9     4.7     4.4     4.1     3.7     3.2     2.7     1.9     1.2     0.6     0.3     0.2     0.2
          0.2     0.3     0.4     0.6     0.8
  38      5.2     5.0     4.8     4.6     4.3     4.0     3.7     3.2     2.7     2.0     1.3     0.7     0.4     0.3     0.3
          0.3     0.4     0.5     0.7     0.9
  39      5.1     4.9     4.7     4.5     4.2     4.0     3.6     3.3     2.8     2.0     1.3     0.7     0.4     0.3     0.4
          0.4     0.5     0.6     0.8     1.0
  40      5.0     4.8     4.6     4.4     4.1     3.9     3.6     3.3     3.0     2.1     1.3     0.5     0.5     0.5     0.5
          0.6     0.7     0.8     1.0     1.1

                  IDOMAIN FOR LAYER 1

          1     2     3     4     5     6     7     8     9    10    11    12    13    14    15    16    17    18    19    20
 ............................................................................................................................
   1      1     1     1     1     1     1     1     1     1     1     1     1     1     1     1     1     1     1     1     1
   2      1     1     1     1     1     1     1     1     1     1     1     1     1     1     1     1     1     1     1     1
   3      1     1     1     1     1     1     1     1     1     1     1     1     1     1     1     1     1     1     1     1
   4      1     1     1     1     1     1     1     1     1     1     1     1     1     1     1     1     1     1     1     1
   5      1     1     1     1     1     1     1     1     1     1     1     1     1     1     1     1     1     1     1     1
   6      1     1     1     1     1     1     1     1     1     1     1     1     1     1     1     1     1     1     1     1
   7      1     1     1     1     1     1     1     1     1     1     1     1     1     1     1     1     1     1     1     1
   8      1     1     1     1     1     1     1     1     1     1     1     1     1     1     1     1     1     1     1     1
   9      1     1     1     1     0     0     0     1     1     1     1     1     1     1     1     1     1     1     1     1
  10      1     1     1     1     0     0     0     0     1     1     1     1     1     1     1     1     1     1     1     1
  11      1     1     1     1     0     0     0     0     1     1     1     1     1     1     1     1     1     1     1     1
  12      1     1     1     1     0     0     0     0     1     1     1     1     1     1     1     1     1     1     1     1
  13      1     1     1     1     0     0     0     0     1     1     1     1     1     1     1     1     1     1     1     1
  14      1     1     1     1     0     0     0     0     1     1     1     1     1     1     1     1     1     1     1     1
  15      1     1     1     1     0     0     0     0     1     1     1     1     1     1     1     1     1     1     1     1
  16      1     1     1     1     0     0     0     0     1     1     1     1     1     1     1     1     1     1     1     1
  17      1     1     1     1     0     0     0     0     1     1     1     1     1     1     1     1     1     1     1     1
  18      1     1     1     1     0     0     0     0     1     1     1     1     1     1     1     1     1     1     1     1
  19      1     1     1     1     0     0     0     0     1     1     1     1     1     1     1     1     1     1     1     1
  20      1     1     1     1     0     0     0     0     1     1     1     1     1     1     1     1     1     1     1     1
  21      1     1     1     1     0     0     0     0     1     1     1     1     1     1     1     1     1     1     1     1
  22      1     1     1     1     0     0     1     1     1     1     1     1     1     1     1     1     1     1     1     1
  23      1     1     1     1     1     0     1     1     1     1     1     1     1     1     1     1     1     1     1     1
  24      1     1     1     1     1     1     1     1     1     1     1     1     1     1     1     1     1     1     1     1
  25      1     1     1     1     1     1     1     1     1     1     1     1     1     1     1     1     1     1     1     1
  26      1     1     1     1     1     1     1     1     1     1     1     1     1     1     1     1     1     1     1     1
  27      1     1     1     1     1     1     1     1     1     1     1     1     1     1     1     1     1     1     1     1
  28      1     1     1     1     1     1     1     1     1     1     1     1     1     1     1     1     1     1     1     1
  29      1     1     1     1     1     1     1     1     1     1     1     1     1     1     1     1     1     1     1     1
  30      1     1     1     1     1     1     1     1     1     1     1     1     1     1     1     1     1     1     1     1
  31      1     1     1     1     1     1     1     1     1     1     1     1     1     1     1     1     1     1     1     1
  32      1     1     1     1     1     1     1     1     1     1     1     1     1     1     1     1     1     1     1     1
  33      0     1     1     1     1     1     1     1     1     1     1     1     1     1     1     1     1     1     1     1
  34      0     0     1     1     1     1     1     1     1     1     1     1     1     1     1     1     1     1     1     1
  35      0     0     0     1     1     1     1     1     1     1     1     1     1     1     1     1     1     1     1     1
  36      0     0     0     0     1     1     1     1     1     1     1     1     1     1     1     1     1     1     1     0
  37      0     0     0     0     1     1     1     1     1     1     1     1     1     1     1     1     1     1     1     0
  38      0     0     0     0     0     1     1     1     1     1     1     1     1     1     1     1     1     1     0     0
  39      0     0     0     0     0     1     1     1     1     1     1     1     1     1     1     1     1     0     0     0
  40      0     0     0     0     0     1     1     1     1     1     1     1     1     1     1     1     0     0     0     0

                  IDOMAIN FOR LAYER 2

          1     2     3     4     5     6     7     8     9    10    11    12    13    14    15    16    17    18    19    20
 ............................................................................................................................
   1      1     1     1     1     1     1     1     1     1     1     1     1     1     1     1     1     1     1     1     1
   2      1     1     1     1     1     1     1     1     1     1     1     1     1     1     1     1     1     1     1     1
   3      1     1     1     1     1     1     1     1     1     1     1     1     1     1     1     1     1     1     1     1
   4      1     1     1     1     1     1     1     1     1     1     1     1     1     1     1     1     1     1     1     1
   5      1     1     1     1     1     1     1     1     1     1     1     1     1     1     1     1     1     1     1     1
   6      1     1     1     1     1     1     1     1     1     1     1     1     1     1     1     1     1     1     1     1
   7      1     1     1     1     1     1     1     1     1     1     1     1     1     1     1     1     1     1     1     1
   8      1     1     1     1     1     1     1     1     1     1     1     1     1     1     1     1     1     1     1     1
   9      1     1     1     1     0     0     0     1     1     1     1     1     1     1     1     1     1     1     1     1
  10      1     1     1     1     0     0     0     0     1     1     1     1     1     1     1     1     1     1     1     1
  11      1     1     1     1     0     0     0     0     1     1     1     1     1     1     1     1     1     1     1     1
  12      1     1     1     1     0     0     0     0     1     1     1     1     1     1     1     1     1     1     1     1
  13      1     1     1     1     0     0     0     0     1     1     1     1     1     1     1     1     1     1     1     1
  14      1     1     1     1     0     0     0     0     1     1     1     1     1     1     1     1     1     1     1     1
  15      1     1     1     1     0     0     0     0     1     1     1     1     1     1     1     1     1     1     1     1
  16      1     1     1     1     0     0     0     0     1     1     1     1     1     1     1     1     1     1     1     1
  17      1     1     1     1     0     0     0     0     1     1     1     1     1     1     1     1     1     1     1     1
  18      1     1     1     1     0     0     0     0     1     1     1     1     1     1     1     1     1     1     1     1
  19      1     1     1     1     0     0     0     0     1     1     1     1     1     1     1     1     1     1     1     1
  20      1     1     1     1     0     0     0     0     1     1     1     1     1     1     1     1     1     1     1     1
  21      1     1     1     1     0     0     0     0     1     1     1     1     1     1     1     1     1     1     1     1
  22      1     1     1     1     0     0     1     1     1     1     1     1     1     1     1     1     1     1     1     1
  23      1     1     1     1     1     0     1     1     1     1     1     1     1     1     1     1     1     1     1     1
  24      1     1     1     1     1     1     1     1     1     1     1     1     1     1     1     1     1     1     1     1
  25      1     1     1     1     1     1     1     1     1     1     1     1     1     1     1     1     1     1     1     1
  26      1     1     1     1     1     1     1     1     1     1     1     1     1     1     1     1     1     1     1     1
  27      1     1     1     1     1     1     1     1     1     1     1     1     1     1     1     1     1     1     1     1
  28      1     1     1     1     1     1     1     1     1     1     1     1     1     1     1     1     1     1     1     1
  29      1     1     1     1     1     1     1     1     1     1     1     1     1     1     1     1     1     1     1     1
  30      1     1     1     1     1     1     1     1     1     1     1     1     1     1     1     1     1     1     1     1
  31      1     1     1     1     1     1     1     1     1     1     1     1     1     1     1     1     1     1     1     1
  32      1     1     1     1     1     1     1     1     1     1     1     1     1     1     1     1     1     1     1     1
  33      0     1     1     1     1     1     1     1     1     1     1     1     1     1     1     1     1     1     1     1
  34      0     0     1     1     1     1     1     1     1     1     1     1     1     1     1     1     1     1     1     1
  35      0     0     0     1     1     1     1     1     1     1     1     1     1     1     1     1     1     1     1     1
  36      0     0     0     0     1     1     1     1     1     1     1     1     1     1     1     1     1     1     1     0
  37      0     0     0     0     1     1     1     1     1     1     1     1     1     1     1     1     1     1     1     0
  38      0     0     0     0     0     1     1     1     1     1     1     1     1     1     1     1     1     1     0     0
  39      0     0     0     0     0     1     1     1     1     1     1     1     1     1     1     1     1     0     0     0
  40      0     0     0     0     0     1     1     1     1     1     1     1     1     1     1     1     0     0     0     0

                  IDOMAIN FOR LAYER 3

          1     2     3     4     5     6     7     8     9    10    11    12    13    14    15    16    17    18    19    20
 ............................................................................................................................
   1      1     1     1     1     1     1     1     1     1     1     1     1     1     1     1     1     1     1     1     1
   2      1     1     1     1     1     1     1     1     1     1     1     1     1     1     1     1     1     1     1     1
   3      1     1     1     1     1     1     1     1     1     1     1     1     1     1     1     1     1     1     1     1
   4      1     1     1     1     1     1     1     1     1     1     1     1     1     1     1     1     1     1     1     1
   5      1     1     1     1     1     1     1     1     1     1     1     1     1     1     1     1     1     1     1     1
   6      1     1     1     1     1     1     1     1     1     1     1     1     1     1     1     1     1     1     1     1
   7      1     1     1     1     1     1     1     1     1     1     1     1     1     1     1     1     1     1     1     1
   8      1     1     1     1     1     1     1     1     1     1     1     1     1     1     1     1     1     1     1     1
   9      1     1     1     1     0     0     0     1     1     1     1     1     1     1     1     1     1     1     1     1
  10      1     1     1     1     0     0     0     0     1     1     1     1     1     1     1     1     1     1     1     1
  11      1     1     1     1     0     0     0     0     1     1     1     1     1     1     1     1     1     1     1     1
  12      1     1     1     1     0     0     0     0     1     1     1     1     1     1     1     1     1     1     1     1
  13      1     1     1     1     0     0     0     0     1     1     1     1     1     1     1     1     1     1     1     1
  14      1     1     1     1     0     0     0     0     1     1     1     1     1     1     1     1     1     1     1     1
  15      1     1     1     1     0     0     0     0     1     1     1     1     1     1     1     1     1     1     1     1
  16      1     1     1     1     0     0     0     0     1     1     1     1     1     1     1     1     1     1     1     1
  17      1     1     1     1     0     0     0     0     1     1     1     1     1     1     1     1     1     1     1     1
  18      1     1     1     1     0     0     0     0     1     1     1     1     1     1     1     1     1     1     1     1
  19      1     1     1     1     0     0     0     0     1     1     1     1     1     1     1     1     1     1     1     1
  20      1     1     1     1     0     0     0     0     1     1     1     1     1     1     1     1     1     1     1     1
  21      1     1     1     1     0     0     0     0     1     1     1     1     1     1     1     1     1     1     1     1
  22      1     1     1     1     0     0     1     1     1     1     1     1     1     1     1     1     1     1     1     1
  23      1     1     1     1     1     0     1     1     1     1     1     1     1     1     1     1     1     1     1     1
  24      1     1     1     1     1     1     1     1     1     1     1     1     1     1     1     1     1     1     1     1
  25      1     1     1     1     1     1     1     1     1     1     1     1     1     1     1     1     1     1     1     1
  26      1     1     1     1     1     1     1     1     1     1     1     1     1     1     1     1     1     1     1     1
  27      1     1     1     1     1     1     1     1     1     1     1     1     1     1     1     1     1     1     1     1
  28      1     1     1     1     1     1     1     1     1     1     1     1     1     1     1     1     1     1     1     1
  29      1     1     1     1     1     1     1     1     1     1     1     1     1     1     1     1     1     1     1     1
  30      1     1     1     1     1     1     1     1     1     1     1     1     1     1     1     1     1     1     1     1
  31      1     1     1     1     1     1     1     1     1     1     1     1     1     1     1     1     1     1     1     1
  32      1     1     1     1     1     1     1     1     1     1     1     1     1     1     1     1     1     1     1     1
  33      0     1     1     1     1     1     1     1     1     1     1     1     1     1     1     1     1     1     1     1
  34      0     0     1     1     1     1     1     1     1     1     1     1     1     1     1     1     1     1     1     1
  35      0     0     0     1     1     1     1     1     1     1     1     1     1     1     1     1     1     1     1     1
  36      0     0     0     0     1     1     1     1     1     1     1     1     1     1     1     1     1     1     1     0
  37      0     0     0     0     1     1     1     1     1     1     1     1     1     1     1     1     1     1     1     0
  38      0     0     0     0     0     1     1     1     1     1     1     1     1     1     1     1     1     1     0     0
  39      0     0     0     0     0     1     1     1     1     1     1     1     1     1     1     1     1     0     0     0
  40      0     0     0     0     0     1     1     1     1     1     1     1     1     1     1     1     0     0     0     0
 END PROCESSING GRIDDATA

 THE SPECIFIED IDOMAIN RESULTS IN A REDUCED NUMBER OF CELLS.
 NUMBER OF USER NODES: 2400
 NUMBER OF NODES IN SOLUTION: 2118



 NPF -- NODE PROPERTY FLOW PACKAGE, VERSION 1, 3/30/2015 INPUT READ FROM UNIT 1007


 PROCESSING NPF OPTIONS
    CELL-BY-CELL FLOW INFORMATION WILL BE SAVED TO BINARY FILE WHENEVER ICBCFL IS NOT ZERO.
 END OF NPF OPTIONS

 WEL   -- WEL PACKAGE, VERSION 8, 2/22/2014 INPUT READ FROM UNIT 1010

 PROCESSING WEL OPTIONS
    LISTS OF WEL CELLS WILL BE PRINTED.
    WEL FLOWS WILL BE PRINTED TO LISTING FILE.
    FLOWS WILL BE SAVED TO BUDGET FILE SPECIFIED IN OUTPUT CONTROL
 END OF WEL OPTIONS

 PROCESSING WEL DIMENSIONS
    MAXBOUND =       6
 END OF WEL DIMENSIONS

 GHB   -- GHB PACKAGE, VERSION 8, 2/22/2014 INPUT READ FROM UNIT 1012

 PROCESSING GHB OPTIONS
    LISTS OF GHB CELLS WILL BE PRINTED.
    GHB FLOWS WILL BE PRINTED TO LISTING FILE.
    FLOWS WILL BE SAVED TO BUDGET FILE SPECIFIED IN OUTPUT CONTROL
 END OF GHB OPTIONS

 PROCESSING GHB DIMENSIONS
    MAXBOUND =      30
 END OF GHB DIMENSIONS

 RCH   -- RCH PACKAGE, VERSION 8, 2/22/2014 INPUT READ FROM UNIT 1011

 PROCESSING RCH OPTIONS
    RECHARGE INPUT WILL BE READ AS ARRAY(S).
    FLOWS WILL BE SAVED TO BUDGET FILE SPECIFIED IN OUTPUT CONTROL
 END OF RCH OPTIONS

 SFR   -- SFR PACKAGE, VERSION 8, 2/22/2014 INPUT READ FROM UNIT 1013

 PROCESSING SFR OPTIONS
    SFR BOUNDARIES HAVE NAMES IN LAST COLUMN.

 OPENED sfr.obs
 FILE TYPE:OBS   UNIT 1016   STATUS:OLD                 
 FORMAT:FORMATTED              ACCESS:SEQUENTIAL          
 ACTION:READ                

    LISTS OF SFR CELLS WILL BE PRINTED.
    FLOWS WILL BE SAVED TO BUDGET FILE SPECIFIED IN OUTPUT CONTROL
    MAXIMUM DEPTH CHANGE VALUE (.1000000000000000E-03) SPECIFIED.
    UNIT CONVERSION VALUE (86400.00000000000) SPECIFIED.
 END OF SFR OPTIONS

 PROCESSING SFR DIMENSIONS
    NREACHES = 40
 END OF SFR DIMENSIONS

 PROCESSING SFR PACKAGEDATA
 END OF SFR PACKAGEDATA

 PROCESSING SFR CONNECTIONDATA
 END OF SFR CONNECTIONDATA

 IC -- INITIAL CONDITIONS PACKAGE, VERSION 8, 3/28/2015 INPUT READ FROM UNIT 1006
 PROCESSING GRIDDATA

 OPENED heads_0.dat_in
 FILE TYPE:OPEN/CLOSE   UNIT 1017   STATUS:OLD                 
 FORMAT:FORMATTED              ACCESS:SEQUENTIAL          
 ACTION:READ                


 OPENED heads_1.dat_in
 FILE TYPE:OPEN/CLOSE   UNIT 1018   STATUS:OLD                 
 FORMAT:FORMATTED              ACCESS:SEQUENTIAL          
 ACTION:READ                


 OPENED heads_2.dat_in
 FILE TYPE:OPEN/CLOSE   UNIT 1019   STATUS:OLD                 
 FORMAT:FORMATTED              ACCESS:SEQUENTIAL          
 ACTION:READ                

 END PROCESSING GRIDDATA
 PROCESSING GRIDDATA

                ICELLTYPE = 1 FOR LAYER 1

                ICELLTYPE = 0 FOR LAYER 2

                ICELLTYPE = 0 FOR LAYER 3

 OPENED npf_k_0.dat
 FILE TYPE:OPEN/CLOSE   UNIT 1020   STATUS:OLD                 
 FORMAT:FORMATTED              ACCESS:SEQUENTIAL          
 ACTION:READ                


 OPENED npf_k_1.dat
 FILE TYPE:OPEN/CLOSE   UNIT 1021   STATUS:OLD                 
 FORMAT:FORMATTED              ACCESS:SEQUENTIAL          
 ACTION:READ                


 OPENED npf_k_2.dat
 FILE TYPE:OPEN/CLOSE   UNIT 1022   STATUS:OLD                 
 FORMAT:FORMATTED              ACCESS:SEQUENTIAL          
 ACTION:READ                


 OPENED npf_k33_0.dat
 FILE TYPE:OPEN/CLOSE   UNIT 1023   STATUS:OLD                 
 FORMAT:FORMATTED              ACCESS:SEQUENTIAL          
 ACTION:READ                


 OPENED npf_k33_1.dat
 FILE TYPE:OPEN/CLOSE   UNIT 1024   STATUS:OLD                 
 FORMAT:FORMATTED              ACCESS:SEQUENTIAL          
 ACTION:READ                


 OPENED npf_k33_2.dat
 FILE TYPE:OPEN/CLOSE   UNIT 1025   STATUS:OLD                 
 FORMAT:FORMATTED              ACCESS:SEQUENTIAL          
 ACTION:READ                

 K22 not provided.  Assuming K22 = K.
 END PROCESSING GRIDDATA

 STO -- STORAGE PACKAGE, VERSION 1, 5/19/2014 INPUT READ FROM UNIT 1008


 PROCESSING STORAGE OPTIONS
 END OF STORAGE OPTIONS
 PROCESSING GRIDDATA

                 ICONVERT = 1 FOR LAYER 1

                 ICONVERT = 0 FOR LAYER 2

                 ICONVERT = 0 FOR LAYER 3

 OPENED sto_ss_0.dat
 FILE TYPE:OPEN/CLOSE   UNIT 1026   STATUS:OLD                 
 FORMAT:FORMATTED              ACCESS:SEQUENTIAL          
 ACTION:READ                


 OPENED sto_ss_1.dat
 FILE TYPE:OPEN/CLOSE   UNIT 1027   STATUS:OLD                 
 FORMAT:FORMATTED              ACCESS:SEQUENTIAL          
 ACTION:READ                


 OPENED sto_ss_2.dat
 FILE TYPE:OPEN/CLOSE   UNIT 1028   STATUS:OLD                 
 FORMAT:FORMATTED              ACCESS:SEQUENTIAL          
 ACTION:READ                


 OPENED sto_sy_0.dat
 FILE TYPE:OPEN/CLOSE   UNIT 1029   STATUS:OLD                 
 FORMAT:FORMATTED              ACCESS:SEQUENTIAL          
 ACTION:READ                


 OPENED sto_sy_1.dat
 FILE TYPE:OPEN/CLOSE   UNIT 1030   STATUS:OLD                 
 FORMAT:FORMATTED              ACCESS:SEQUENTIAL          
 ACTION:READ                


 OPENED sto_sy_2.dat
 FILE TYPE:OPEN/CLOSE   UNIT 1031   STATUS:OLD                 
 FORMAT:FORMATTED              ACCESS:SEQUENTIAL          
 ACTION:READ                

 END PROCESSING GRIDDATA

The observation utility is active for "FREYBERG6"
No options block found in OBS input. Defaults will be used.

    BINARY GRID INFORMATION WILL BE WRITTEN TO:
      UNIT NUMBER: 1033
      FILE NAME: /Users/JWhite/Dev/pestpp/pestpp-da_benchmarks/mf6_freyberg/template_seq_native_compare/freyberg6.dis.grb

 OPENED /Users/JWhite/Dev/pestpp/pestpp-da_benchmarks/mf6_freyberg/template_seq_native_compare/freyberg6.dis.grb
 FILE TYPE:DATA(BINARY)   UNIT 1033   STATUS:REPLACE             
 FORMAT:UNFORMATTED            ACCESS:STREAM              
 ACTION:READWRITE           

      THE LAST TIME STEP WILL BE PRINTED
      THE LAST TIME STEP WILL BE PRINTED

 PROCESSING OC OPTIONS

    BUDGET INFORMATION WILL BE WRITTEN TO:
      UNIT NUMBER: 1034
      FILE NAME: freyberg6_freyberg.cbc

 OPENED freyberg6_freyberg.cbc
 FILE TYPE:DATA(BINARY)   UNIT 1034   STATUS:REPLACE             
 FORMAT:UNFORMATTED            ACCESS:STREAM              
 ACTION:READWRITE           

    HEAD INFORMATION WILL BE WRITTEN TO:
      UNIT NUMBER: 1035
      FILE NAME: freyberg6_freyberg.hds

 OPENED freyberg6_freyberg.hds
 FILE TYPE:DATA(BINARY)   UNIT 1035   STATUS:REPLACE             
 FORMAT:UNFORMATTED            ACCESS:STREAM              
 ACTION:READWRITE           

 END OF OC OPTIONS

The observation utility is active for "SFR_1"
No options block found in OBS input. Defaults will be used.


 SFR PACKAGE (SFR_1) STATIC REACH DATA
 ---------------------------------------------------------------------------------------------------------------------------------------
                                                                                                                              UPSTREAM  
   NUMBER   CELLID                  LENGTH       WIDTH        SLOPE         TOP       THICKNESS        HK       ROUGHNESS     FRACTION  
 ---------------------------------------------------------------------------------------------------------------------------------------
     1      (1,1,16)              250.00       5.0000       5.00000E-05  34.000       1.0000       0.10000      3.00000E-02  1.0000     
     2      (1,2,16)              250.00       5.0000       5.00000E-05  33.987       1.0000       0.10000      3.00000E-02  1.0000     
     3      (1,3,16)              250.00       5.0000       5.00000E-05  33.974       1.0000       0.10000      3.00000E-02  1.0000     
     4      (1,4,16)              250.00       5.0000       5.00000E-05  33.962       1.0000       0.10000      3.00000E-02  1.0000     
     5      (1,5,16)              250.00       5.0000       5.00000E-05  33.949       1.0000       0.10000      3.00000E-02  1.0000     
     6      (1,6,16)              250.00       5.0000       5.00000E-05  33.936       1.0000       0.10000      3.00000E-02  1.0000     
     7      (1,7,16)              250.00       5.0000       5.00000E-05  33.923       1.0000       0.10000      3.00000E-02  1.0000     
     8      (1,8,16)              250.00       5.0000       5.00000E-05  33.910       1.0000       0.10000      3.00000E-02  1.0000     
     9      (1,9,16)              250.00       5.0000       5.00000E-05  33.897       1.0000       0.10000      3.00000E-02  1.0000     
     10     (1,10,16)             250.00       5.0000       5.00000E-05  33.885       1.0000       0.10000      3.00000E-02  1.0000     
     11     (1,11,16)             250.00       5.0000       5.00000E-05  33.872       1.0000       0.10000      3.00000E-02  1.0000     
     12     (1,12,16)             250.00       5.0000       5.00000E-05  33.859       1.0000       0.10000      3.00000E-02  1.0000     
     13     (1,13,16)             250.00       5.0000       5.00000E-05  33.846       1.0000       0.10000      3.00000E-02  1.0000     
     14     (1,14,16)             250.00       5.0000       5.00000E-05  33.833       1.0000       0.10000      3.00000E-02  1.0000     
     15     (1,15,16)             250.00       5.0000       5.00000E-05  33.821       1.0000       0.10000      3.00000E-02  1.0000     
     16     (1,16,16)             250.00       5.0000       5.00000E-05  33.808       1.0000       0.10000      3.00000E-02  1.0000     
     17     (1,17,16)             250.00       5.0000       5.00000E-05  33.795       1.0000       0.10000      3.00000E-02  1.0000     
     18     (1,18,16)             250.00       5.0000       5.00000E-05  33.782       1.0000       0.10000      3.00000E-02  1.0000     
     19     (1,19,16)             250.00       5.0000       5.00000E-05  33.769       1.0000       0.10000      3.00000E-02  1.0000     
     20     (1,20,16)             250.00       5.0000       5.00000E-05  33.756       1.0000       0.10000      3.00000E-02  1.0000     
     21     (1,21,16)             250.00       5.0000       5.00000E-05  33.744       1.0000       0.10000      3.00000E-02  1.0000     
     22     (1,22,16)             250.00       5.0000       5.00000E-05  33.731       1.0000       0.10000      3.00000E-02  1.0000     
     23     (1,23,16)             250.00       5.0000       5.00000E-05  33.718       1.0000       0.10000      3.00000E-02  1.0000     
     24     (1,24,16)             250.00       5.0000       5.00000E-05  33.705       1.0000       0.10000      3.00000E-02  1.0000     
     25     (1,25,16)             250.00       5.0000       5.00000E-05  33.692       1.0000       0.10000      3.00000E-02  1.0000     
     26     (1,26,16)             250.00       5.0000       5.00000E-05  33.679       1.0000       0.10000      3.00000E-02  1.0000     
     27     (1,27,16)             250.00       5.0000       5.00000E-05  33.667       1.0000       0.10000      3.00000E-02  1.0000     
     28     (1,28,16)             250.00       5.0000       5.00000E-05  33.654       1.0000       0.10000      3.00000E-02  1.0000     
     29     (1,29,16)             250.00       5.0000       5.00000E-05  33.641       1.0000       0.10000      3.00000E-02  1.0000     
     30     (1,30,16)             250.00       5.0000       5.00000E-05  33.628       1.0000       0.10000      3.00000E-02  1.0000     
     31     (1,31,16)             250.00       5.0000       5.00000E-05  33.615       1.0000       0.10000      3.00000E-02  1.0000     
     32     (1,32,16)             250.00       5.0000       5.00000E-05  33.603       1.0000       0.10000      3.00000E-02  1.0000     
     33     (1,33,16)             250.00       5.0000       5.00000E-05  33.590       1.0000       0.10000      3.00000E-02  1.0000     
     34     (1,34,16)             250.00       5.0000       5.00000E-05  33.577       1.0000       0.10000      3.00000E-02  1.0000     
     35     (1,35,16)             250.00       5.0000       5.00000E-05  33.564       1.0000       0.10000      3.00000E-02  1.0000     
     36     (1,36,16)             250.00       5.0000       5.00000E-05  33.551       1.0000       0.10000      3.00000E-02  1.0000     
     37     (1,37,16)             250.00       5.0000       5.00000E-05  33.538       1.0000       0.10000      3.00000E-02  1.0000     
     38     (1,38,16)             250.00       5.0000       5.00000E-05  33.526       1.0000       0.10000      3.00000E-02  1.0000     
     39     (1,39,16)             250.00       5.0000       5.00000E-05  33.513       1.0000       0.10000      3.00000E-02  1.0000     
     40     (1,40,16)             250.00       5.0000       5.00000E-05  33.510       1.0000       0.10000      3.00000E-02  1.0000     
 ---------------------------------------------------------------------------------------------------------------------------------------



 SFR PACKAGE (SFR_1) STATIC REACH CONNECTION DATA
 --------------------------------
   REACH      CONN 1     CONN 2  
 --------------------------------
     1          2                
     2          1          3     
     3          2          4     
     4          3          5     
     5          4          6     
     6          5          7     
     7          6          8     
     8          7          9     
     9          8          10    
     10         9          11    
     11         10         12    
     12         11         13    
     13         12         14    
     14         13         15    
     15         14         16    
     16         15         17    
     17         16         18    
     18         17         19    
     19         18         20    
     20         19         21    
     21         20         22    
     22         21         23    
     23         22         24    
     24         23         25    
     25         24         26    
     26         25         27    
     27         26         28    
     28         27         29    
     29         28         30    
     30         29         31    
     31         30         32    
     32         31         33    
     33         32         34    
     34         33         35    
     35         34         36    
     36         35         37    
     37         36         38    
     38         37         39    
     39         38         40    
     40         39               
 --------------------------------



 SFR PACKAGE (SFR_1) STATIC UPSTREAM REACH CONNECTION DATA
 ---------------------
             UPSTREAM 
   REACH      CONN 1  
 ---------------------
     1                
     2          1     
     3          2     
     4          3     
     5          4     
     6          5     
     7          6     
     8          7     
     9          8     
     10         9     
     11         10    
     12         11    
     13         12    
     14         13    
     15         14    
     16         15    
     17         16    
     18         17    
     19         18    
     20         19    
     21         20    
     22         21    
     23         22    
     24         23    
     25         24    
     26         25    
     27         26    
     28         27    
     29         28    
     30         29    
     31         30    
     32         31    
     33         32    
     34         33    
     35         34    
     36         35    
     37         36    
     38         37    
     39         38    
     40         39    
 ---------------------



 SFR PACKAGE (SFR_1) STATIC DOWNSTREAM REACH CONNECTION DATA
 ---------------------
            DOWNSTREAM
   REACH      CONN 1  
 ---------------------
     1          2     
     2          3     
     3          4     
     4          5     
     5          6     
     6          7     
     7          8     
     8          9     
     9          10    
     10         11    
     11         12    
     12         13    
     13         14    
     14         15    
     15         16    
     16         17    
     17         18    
     18         19    
     19         20    
     20         21    
     21         22    
     22         23    
     23         24    
     24         25    
     25         26    
     26         27    
     27         28    
     28         29    
     29         30    
     30         31    
     31         32    
     32         33    
     33         34    
     34         35    
     35         36    
     36         37    
     37         38    
     38         39    
     39         40    
     40               
 ---------------------



start timestep kper="1" kstp="1" mode="normal"


 BEGIN READING OUTPUT CONTROL FOR STRESS PERIOD 1
      ALL TIME STEPS WILL BE SAVED
      ALL TIME STEPS WILL BE SAVED
      ALL TIME STEPS WILL BE PRINTED
      ALL TIME STEPS WILL BE PRINTED

 END READING OUTPUT CONTROL FOR STRESS PERIOD 1


 PROCESSING STORAGE PERIOD DATA
 END PROCESSING STORAGE PERIOD DATA


 STRESS PERIOD 1 IS TRANSIENT

 ---------------------------------------------------
  WEL NO.    LAYER    ROW     COL     STRESS RATE   
 ---------------------------------------------------
     1         3      10      17     157.500000     
     2         3      12      14     157.500000     
     3         3      21      15     157.500000     
     4         3      27      11     157.500000     
     5         3      30       7     157.500000     
     6         3      35      13     157.500000     
 ---------------------------------------------------


 --------------------------------------------------------------------
  GHB NO.    LAYER    ROW     COL        STAGE         CONDUCTANCE   
 --------------------------------------------------------------------
     1         1      40       6     33.5000000       70.0000000     
     2         1      40       7     33.5000000       70.0000000     
     3         1      40       8     33.5000000       70.0000000     
     4         1      40       9     33.5000000       70.0000000     
     5         1      40      10     33.5000000       70.0000000     
     6         1      40      11     33.5000000       70.0000000     
     7         1      40      12     33.5000000       70.0000000     
     8         1      40      13     33.5000000       70.0000000     
     9         1      40      14     33.5000000       70.0000000     
     10        1      40      15     33.5000000       70.0000000     
     11        2      40       6     33.5000000       70.0000000     
     12        2      40       7     33.5000000       70.0000000     
     13        2      40       8     33.5000000       70.0000000     
     14        2      40       9     33.5000000       70.0000000     
     15        2      40      10     33.5000000       70.0000000     
     16        2      40      11     33.5000000       70.0000000     
     17        2      40      12     33.5000000       70.0000000     
     18        2      40      13     33.5000000       70.0000000     
     19        2      40      14     33.5000000       70.0000000     
     20        2      40      15     33.5000000       70.0000000     
     21        3      40       6     33.5000000       70.0000000     
     22        3      40       7     33.5000000       70.0000000     
     23        3      40       8     33.5000000       70.0000000     
     24        3      40       9     33.5000000       70.0000000     
     25        3      40      10     33.5000000       70.0000000     
     26        3      40      11     33.5000000       70.0000000     
     27        3      40      12     33.5000000       70.0000000     
     28        3      40      13     33.5000000       70.0000000     
     29        3      40      14     33.5000000       70.0000000     
     30        3      40      15     33.5000000       70.0000000     
 --------------------------------------------------------------------



                 RECHARGE =  0.6168960E-04

 SFR PACKAGE (SFR_1) DATA FOR PERIOD      1
 ---------------------------------------------------------------
   NUMBER   KEYWORD                  VALUE 1         VALUE 2    
 ---------------------------------------------------------------
     1      INFLOW               100.00000000000                
 ---------------------------------------------------------------



 SFR PACKAGE (SFR_1) CONNECTED REACH UPSTREAM FRACTION DATA
 ----------------------------------
            DOWNSTREAM             
   REACH     REACH 1    FRACTION 1 
 ----------------------------------
     1          2       1.0000     
     2          3       1.0000     
     3          4       1.0000     
     4          5       1.0000     
     5          6       1.0000     
     6          7       1.0000     
     7          8       1.0000     
     8          9       1.0000     
     9          10      1.0000     
     10         11      1.0000     
     11         12      1.0000     
     12         13      1.0000     
     13         14      1.0000     
     14         15      1.0000     
     15         16      1.0000     
     16         17      1.0000     
     17         18      1.0000     
     18         19      1.0000     
     19         20      1.0000     
     20         21      1.0000     
     21         22      1.0000     
     22         23      1.0000     
     23         24      1.0000     
     24         25      1.0000     
     25         26      1.0000     
     26         27      1.0000     
     27         28      1.0000     
     28         29      1.0000     
     29         30      1.0000     
     30         31      1.0000     
     31         32      1.0000     
     32         33      1.0000     
     33         34      1.0000     
     34         35      1.0000     
     35         36      1.0000     
     36         37      1.0000     
     37         38      1.0000     
     38         39      1.0000     
     39         40      1.0000     
     40                            
 ----------------------------------


 UBDSV1 SAVING     FLOW-JA-FACE ON UNIT   1034 AT TIME STEP      1, STRESS PERIOD      1
 UBDSV06 SAVING              WEL IN MODEL FREYBERG6        PACKAGE FREYBERG6       CONNECTED TO MODEL FREYBERG6        PACKAGE WEL-1            ON UNIT   1034 AT TIME STEP      1, STRESS PERIOD      1

 WEL PACKAGE (WEL-1) FLOW RATES   PERIOD      1   STEP        1
 -----------------------------------------------
   NUMBER   CELLID                    RATE      
 -----------------------------------------------
     1      (3,10,17)             157.50000     
     2      (3,12,14)             157.50000     
     3      (3,21,15)             157.50000     
     4      (3,27,11)             157.50000     
     5      (3,30,7)              157.50000     
     6      (3,35,13)             157.50000     
 -----------------------------------------------



 UBDSV06 SAVING              GHB IN MODEL FREYBERG6        PACKAGE FREYBERG6       CONNECTED TO MODEL FREYBERG6        PACKAGE GHB-1            ON UNIT   1034 AT TIME STEP      1, STRESS PERIOD      1

 GHB PACKAGE (GHB-1) FLOW RATES   PERIOD      1   STEP        1
 -----------------------------------------------
   NUMBER   CELLID                    RATE      
 -----------------------------------------------
     1      (1,40,6)              43.505422     
     2      (1,40,7)              43.812561     
     3      (1,40,8)              44.235182     
     4      (1,40,9)              44.629250     
     5      (1,40,10)             44.840045     
     6      (1,40,11)             44.759910     
     7      (1,40,12)             44.240578     
     8      (1,40,13)             42.998988     
     9      (1,40,14)             40.492031     
     10     (1,40,15)             35.478678     
     11     (2,40,6)              34.302980     
     12     (2,40,7)              34.752181     
     13     (2,40,8)              35.389083     
     14     (2,40,9)              35.968296     
     15     (2,40,10)             36.280467     
     16     (2,40,11)             36.161886     
     17     (2,40,12)             35.387966     
     18     (2,40,13)             33.548800     
     19     (2,40,14)             29.844452     
     20     (2,40,15)             22.572122     
     21     (3,40,6)              26.534534     
     22     (3,40,7)              27.146108     
     23     (3,40,8)              28.029908     
     24     (3,40,9)              28.822784     
     25     (3,40,10)             29.234537     
     26     (3,40,11)             29.048139     
     27     (3,40,12)             27.946216     
     28     (3,40,13)             25.383981     
     29     (3,40,14)             20.232392     
     30     (3,40,15)             10.227377     
 -----------------------------------------------



 UBDSV06 SAVING              RCH IN MODEL FREYBERG6        PACKAGE FREYBERG6       CONNECTED TO MODEL FREYBERG6        PACKAGE RCH-1            ON UNIT   1034 AT TIME STEP      1, STRESS PERIOD      1
 UBDSV06 SAVING              SFR IN MODEL FREYBERG6        PACKAGE FREYBERG6       CONNECTED TO MODEL FREYBERG6        PACKAGE SFR_1            ON UNIT   1034 AT TIME STEP      1, STRESS PERIOD      1
1
  HEAD IN LAYER   1 AT END OF TIME STEP   1 IN STRESS PERIOD    1
  ---------------------------------------------------------------------------

            1           2           3           4           5           6           7           8           9          10
           11          12          13          14          15          16          17          18          19          20
 ........................................................................................................................
   1    39.39       39.32       39.18       38.98       38.74       38.48       38.17       37.87       37.55       37.21    
        36.88       36.56       36.23       35.89       35.54       35.09       35.24       35.28       35.31       35.33    
   2    39.40       39.33       39.19       38.98       38.75       38.48       38.17       37.86       37.53       37.19    
        36.86       36.54       36.21       35.87       35.54       35.08       35.23       35.27       35.30       35.32    
   3    39.43       39.35       39.21       39.00       38.76       38.48       38.16       37.84       37.50       37.16    
        36.82       36.51       36.18       35.85       35.52       35.07       35.22       35.26       35.29       35.31    
   4    39.46       39.39       39.24       39.03       38.78       38.49       38.15       37.81       37.46       37.09    
        36.76       36.45       36.13       35.81       35.48       35.05       35.20       35.23       35.26       35.28    
   5    39.52       39.44       39.29       39.07       38.81       38.49       38.13       37.78       37.39       37.02    
        36.69       36.38       36.07       35.76       35.44       35.02       35.16       35.20       35.22       35.24    
   6    39.58       39.51       39.36       39.13       38.84       38.50       38.11       37.70       37.31       36.93    
        36.58       36.29       35.99       35.69       35.39       34.98       35.12       35.15       35.18       35.20    
   7    39.67       39.60       39.45       39.21       38.89       38.49       38.07       37.60       37.18       36.79    
        36.47       36.18       35.90       35.61       35.32       34.94       35.06       35.09       35.12       35.14    
   8    39.78       39.71       39.59       39.36       38.94       38.49       38.01       37.43       36.98       36.62    
        36.32       36.06       35.79       35.52       35.25       34.88       34.99       35.03       35.06       35.09    
   9    39.89       39.85       39.77       39.70      1.0000E+30  1.0000E+30  1.0000E+30   37.06       36.68       36.41    
        36.17       35.92       35.67       35.42       35.16       34.82       34.89       34.95       35.00       35.03    
  10    40.00       39.97       39.93       39.90      1.0000E+30  1.0000E+30  1.0000E+30  1.0000E+30   36.33       36.19    
        36.00       35.78       35.55       35.30       35.07       34.75       34.74       34.88       34.96       34.99    
  11    40.07       40.06       40.04       40.02      1.0000E+30  1.0000E+30  1.0000E+30  1.0000E+30   36.09       35.99    
        35.84       35.65       35.42       35.18       35.00       34.73       34.81       34.88       34.94       34.97    
  12    40.11       40.10       40.09       40.08      1.0000E+30  1.0000E+30  1.0000E+30  1.0000E+30   35.92       35.85    
        35.72       35.54       35.31       35.02       34.93       34.71       34.84       34.89       34.94       34.97    
  13    40.10       40.09       40.09       40.08      1.0000E+30  1.0000E+30  1.0000E+30  1.0000E+30   35.80       35.74    
        35.62       35.47       35.29       35.08       34.94       34.71       34.85       34.90       34.94       34.97    
  14    40.05       40.05       40.04       40.03      1.0000E+30  1.0000E+30  1.0000E+30  1.0000E+30   35.71       35.66    
        35.56       35.43       35.27       35.10       34.95       34.71       34.86       34.91       34.95       34.97    
  15    39.96       39.96       39.95       39.94      1.0000E+30  1.0000E+30  1.0000E+30  1.0000E+30   35.65       35.60    
        35.51       35.40       35.26       35.11       34.95       34.71       34.86       34.91       34.95       34.97    
  16    39.83       39.83       39.82       39.82      1.0000E+30  1.0000E+30  1.0000E+30  1.0000E+30   35.60       35.55    
        35.47       35.37       35.24       35.09       34.94       34.70       34.85       34.90       34.94       34.96    
  17    39.66       39.65       39.65       39.65      1.0000E+30  1.0000E+30  1.0000E+30  1.0000E+30   35.56       35.52    
        35.44       35.34       35.21       35.07       34.93       34.69       34.84       34.89       34.93       34.95    
  18    39.47       39.46       39.45       39.45      1.0000E+30  1.0000E+30  1.0000E+30  1.0000E+30   35.54       35.50    
        35.42       35.31       35.19       35.04       34.90       34.67       34.82       34.87       34.92       34.94    
  19    39.23       39.23       39.21       39.21      1.0000E+30  1.0000E+30  1.0000E+30  1.0000E+30   35.53       35.48    
        35.40       35.29       35.15       35.01       34.85       34.64       34.79       34.85       34.90       34.92    
  20    38.97       38.95       38.94       38.93      1.0000E+30  1.0000E+30  1.0000E+30  1.0000E+30   35.54       35.48    
        35.38       35.26       35.12       34.96       34.79       34.61       34.76       34.83       34.88       34.91    
  21    38.68       38.66       38.63       38.60      1.0000E+30  1.0000E+30  1.0000E+30  1.0000E+30   35.57       35.49    
        35.38       35.25       35.09       34.91       34.67       34.57       34.74       34.81       34.87       34.89    
  22    38.38       38.34       38.27       38.21      1.0000E+30  1.0000E+30   35.92       35.82       35.65       35.52    
        35.38       35.24       35.09       34.92       34.75       34.58       34.73       34.80       34.85       34.88    
  23    38.05       38.00       37.91       37.74       37.42      1.0000E+30   35.99       35.85       35.68       35.52    
        35.37       35.23       35.08       34.93       34.78       34.58       34.73       34.79       34.84       34.86    
  24    37.76       37.69       37.57       37.38       37.06       36.56       36.15       35.89       35.69       35.50    
        35.34       35.20       35.06       34.92       34.79       34.58       34.73       34.78       34.83       34.85    
  25    37.47       37.40       37.28       37.09       36.80       36.44       36.13       35.87       35.65       35.45    
        35.28       35.15       35.02       34.90       34.78       34.57       34.71       34.77       34.81       34.84    
  26    37.21       37.14       37.02       36.82       36.58       36.30       36.04       35.80       35.57       35.37    
        35.18       35.07       34.97       34.87       34.75       34.55       34.70       34.75       34.79       34.82    
  27    36.96       36.90       36.78       36.61       36.38       36.15       35.91       35.69       35.48       35.26    
        35.02       34.99       34.92       34.83       34.72       34.53       34.68       34.73       34.77       34.79    
  28    36.75       36.68       36.56       36.40       36.19       35.97       35.75       35.55       35.38       35.20    
        35.04       34.95       34.87       34.78       34.69       34.50       34.65       34.70       34.74       34.77    
  29    36.55       36.48       36.36       36.20       35.99       35.77       35.54       35.40       35.26       35.13    
        35.00       34.91       34.82       34.74       34.65       34.47       34.62       34.67       34.71       34.74    
  30    36.37       36.30       36.18       36.01       35.81       35.57       35.29       35.24       35.14       35.04    
        34.93       34.84       34.76       34.68       34.60       34.44       34.58       34.64       34.68       34.70    
  31    36.23       36.15       36.02       35.86       35.66       35.46       35.25       35.13       35.03       34.93    
        34.83       34.75       34.67       34.60       34.53       34.39       34.53       34.59       34.64       34.66    
  32    36.14       36.02       35.87       35.68       35.51       35.32       35.15       35.01       34.90       34.80    
        34.70       34.62       34.55       34.50       34.45       34.34       34.48       34.55       34.59       34.62    
  33   1.0000E+30   35.88       35.71       35.52       35.34       35.16       35.00       34.86       34.74       34.64    
        34.54       34.46       34.40       34.37       34.36       34.28       34.42       34.49       34.54       34.57    
  34   1.0000E+30  1.0000E+30   35.54       35.33       35.14       34.96       34.80       34.67       34.55       34.45    
        34.35       34.27       34.20       34.22       34.24       34.21       34.36       34.43       34.49       34.53    
  35   1.0000E+30  1.0000E+30  1.0000E+30   35.13       34.89       34.71       34.57       34.44       34.33       34.23    
        34.14       34.05       33.93       34.04       34.12       34.14       34.28       34.36       34.43       34.49    
  36   1.0000E+30  1.0000E+30  1.0000E+30  1.0000E+30   34.56       34.42       34.28       34.16       34.07       33.99    
        33.92       33.86       33.84       33.90       34.00       34.06       34.20       34.29       34.34      1.0000E+30
  37   1.0000E+30  1.0000E+30  1.0000E+30  1.0000E+30   34.34       34.09       33.95       33.85       33.77       33.71    
        33.67       33.65       33.66       33.74       33.85       33.97       34.11       34.21       34.29      1.0000E+30
  38   1.0000E+30  1.0000E+30  1.0000E+30  1.0000E+30  1.0000E+30   33.62       33.56       33.50       33.46       33.42    
        33.40       33.40       33.43       33.51       33.67       33.87       34.01       34.12      1.0000E+30  1.0000E+30
  39   1.0000E+30  1.0000E+30  1.0000E+30  1.0000E+30  1.0000E+30   33.20       33.19       33.16       33.13       33.11    
        33.11       33.12       33.15       33.24       33.41       33.76       33.90      1.0000E+30  1.0000E+30  1.0000E+30
  40   1.0000E+30  1.0000E+30  1.0000E+30  1.0000E+30  1.0000E+30   32.88       32.87       32.87       32.86       32.86    
        32.86       32.87       32.89       32.92       32.99       33.86      1.0000E+30  1.0000E+30  1.0000E+30  1.0000E+30
1
  HEAD IN LAYER   2 AT END OF TIME STEP   1 IN STRESS PERIOD    1
  ---------------------------------------------------------------------------

            1           2           3           4           5           6           7           8           9          10
           11          12          13          14          15          16          17          18          19          20
 ........................................................................................................................
   1    39.36       39.29       39.16       38.96       38.73       38.46       38.16       37.86       37.53       37.20    
        36.87       36.55       36.22       35.89       35.56       35.20       35.26       35.28       35.31       35.32    
   2    39.37       39.30       39.16       38.96       38.73       38.46       38.16       37.85       37.52       37.18    
        36.85       36.53       36.21       35.88       35.55       35.19       35.25       35.27       35.30       35.31    
   3    39.40       39.33       39.18       38.98       38.74       38.46       38.15       37.83       37.49       37.15    
        36.81       36.50       36.17       35.85       35.53       35.18       35.23       35.26       35.28       35.29    
   4    39.44       39.36       39.22       39.01       38.76       38.47       38.13       37.80       37.45       37.09    
        36.75       36.44       36.13       35.81       35.50       35.16       35.21       35.23       35.25       35.27    
   5    39.49       39.42       39.27       39.05       38.78       38.47       38.11       37.76       37.38       37.01    
        36.68       36.37       36.06       35.76       35.46       35.13       35.18       35.20       35.22       35.23    
   6    39.56       39.49       39.33       39.11       38.82       38.47       38.09       37.69       37.30       36.92    
        36.58       36.28       35.99       35.69       35.40       35.08       35.13       35.15       35.17       35.19    
   7    39.64       39.57       39.43       39.19       38.86       38.47       38.05       37.58       37.17       36.79    
        36.46       36.18       35.89       35.61       35.34       35.03       35.08       35.10       35.12       35.14    
   8    39.75       39.69       39.57       39.34       38.91       38.47       37.98       37.41       36.97       36.62    
        36.32       36.05       35.79       35.52       35.26       34.97       35.01       35.03       35.06       35.08    
   9    39.87       39.83       39.75       39.68      1.0000E+30  1.0000E+30  1.0000E+30   37.05       36.68       36.40    
        36.16       35.92       35.67       35.42       35.18       34.91       34.93       34.96       35.00       35.03    
  10    39.98       39.95       39.91       39.88      1.0000E+30  1.0000E+30  1.0000E+30  1.0000E+30   36.32       36.18    
        35.99       35.78       35.55       35.32       35.10       34.85       34.85       34.91       34.96       34.99    
  11    40.05       40.04       40.02       40.00      1.0000E+30  1.0000E+30  1.0000E+30  1.0000E+30   36.08       35.98    
        35.84       35.65       35.43       35.21       35.03       34.81       34.85       34.90       34.94       34.97    
  12    40.09       40.08       40.07       40.06      1.0000E+30  1.0000E+30  1.0000E+30  1.0000E+30   35.91       35.84    
        35.71       35.54       35.34       35.11       34.97       34.79       34.86       34.90       34.94       34.96    
  13    40.08       40.07       40.07       40.06      1.0000E+30  1.0000E+30  1.0000E+30  1.0000E+30   35.79       35.73    
        35.62       35.47       35.30       35.11       34.96       34.79       34.86       34.90       34.94       34.96    
  14    40.03       40.03       40.02       40.01      1.0000E+30  1.0000E+30  1.0000E+30  1.0000E+30   35.70       35.64    
        35.55       35.42       35.27       35.11       34.96       34.79       34.86       34.91       34.94       34.96    
  15    39.94       39.94       39.93       39.92      1.0000E+30  1.0000E+30  1.0000E+30  1.0000E+30   35.63       35.58    
        35.50       35.39       35.25       35.11       34.96       34.78       34.86       34.90       34.94       34.96    
  16    39.81       39.81       39.80       39.80      1.0000E+30  1.0000E+30  1.0000E+30  1.0000E+30   35.58       35.54    
        35.46       35.36       35.23       35.09       34.95       34.77       34.86       34.90       34.93       34.95    
  17    39.64       39.64       39.63       39.63      1.0000E+30  1.0000E+30  1.0000E+30  1.0000E+30   35.55       35.51    
        35.43       35.33       35.21       35.07       34.93       34.76       34.84       34.89       34.92       34.94    
  18    39.45       39.44       39.43       39.43      1.0000E+30  1.0000E+30  1.0000E+30  1.0000E+30   35.53       35.48    
        35.40       35.30       35.18       35.04       34.91       34.74       34.82       34.87       34.91       34.93    
  19    39.21       39.21       39.19       39.19      1.0000E+30  1.0000E+30  1.0000E+30  1.0000E+30   35.52       35.47    
        35.38       35.28       35.15       35.01       34.87       34.71       34.80       34.85       34.89       34.91    
  20    38.95       38.94       38.92       38.91      1.0000E+30  1.0000E+30  1.0000E+30  1.0000E+30   35.52       35.47    
        35.37       35.26       35.12       34.97       34.82       34.68       34.77       34.83       34.87       34.90    
  21    38.66       38.64       38.61       38.58      1.0000E+30  1.0000E+30  1.0000E+30  1.0000E+30   35.56       35.48    
        35.37       35.24       35.09       34.93       34.76       34.65       34.75       34.81       34.86       34.88    
  22    38.35       38.32       38.26       38.20      1.0000E+30  1.0000E+30   35.90       35.80       35.64       35.50    
        35.37       35.23       35.09       34.93       34.79       34.65       34.74       34.80       34.84       34.87    
  23    38.03       37.98       37.89       37.72       37.40      1.0000E+30   35.97       35.84       35.67       35.51    
        35.36       35.22       35.08       34.93       34.80       34.65       34.74       34.79       34.83       34.85    
  24    37.73       37.67       37.55       37.36       37.03       36.54       36.13       35.88       35.68       35.50    
        35.33       35.19       35.06       34.92       34.80       34.64       34.73       34.78       34.82       34.84    
  25    37.45       37.38       37.26       37.07       36.78       36.43       36.12       35.86       35.64       35.45    
        35.28       35.15       35.02       34.90       34.78       34.63       34.72       34.77       34.80       34.82    
  26    37.19       37.12       37.00       36.81       36.57       36.30       36.03       35.79       35.57       35.37    
        35.20       35.08       34.97       34.87       34.76       34.61       34.70       34.75       34.78       34.80    
  27    36.94       36.88       36.76       36.59       36.37       36.14       35.90       35.68       35.48       35.28    
        35.10       35.01       34.92       34.83       34.73       34.59       34.68       34.72       34.76       34.78    
  28    36.73       36.66       36.55       36.38       36.18       35.96       35.75       35.55       35.38       35.21    
        35.06       34.96       34.87       34.78       34.69       34.56       34.65       34.70       34.73       34.75    
  29    36.53       36.46       36.35       36.19       35.99       35.78       35.57       35.41       35.27       35.13    
        35.01       34.91       34.82       34.73       34.65       34.53       34.62       34.66       34.70       34.72    
  30    36.35       36.28       36.16       36.00       35.81       35.60       35.38       35.26       35.15       35.03    
        34.93       34.83       34.75       34.67       34.59       34.49       34.58       34.63       34.67       34.69    
  31    36.21       36.13       36.00       35.84       35.65       35.46       35.27       35.14       35.03       34.92    
        34.82       34.74       34.66       34.59       34.53       34.44       34.53       34.58       34.62       34.65    
  32    36.13       36.00       35.85       35.68       35.50       35.32       35.15       35.01       34.89       34.79    
        34.69       34.61       34.54       34.49       34.45       34.38       34.48       34.53       34.58       34.60    
  33   1.0000E+30   35.86       35.70       35.51       35.33       35.15       34.99       34.85       34.73       34.63    
        34.54       34.46       34.40       34.37       34.35       34.32       34.42       34.48       34.53       34.56    
  34   1.0000E+30  1.0000E+30   35.52       35.32       35.12       34.95       34.79       34.66       34.54       34.44    
        34.35       34.27       34.22       34.22       34.24       34.24       34.35       34.42       34.47       34.51    
  35   1.0000E+30  1.0000E+30  1.0000E+30   35.11       34.87       34.70       34.56       34.43       34.32       34.22    
        34.14       34.07       34.01       34.06       34.12       34.16       34.27       34.35       34.41       34.48    
  36   1.0000E+30  1.0000E+30  1.0000E+30  1.0000E+30   34.54       34.41       34.27       34.16       34.06       33.98    
        33.92       33.88       33.86       33.91       33.99       34.07       34.19       34.27       34.33      1.0000E+30
  37   1.0000E+30  1.0000E+30  1.0000E+30  1.0000E+30   34.33       34.09       33.95       33.85       33.78       33.72    
        33.68       33.66       33.68       33.74       33.85       33.97       34.09       34.19       34.28      1.0000E+30
  38   1.0000E+30  1.0000E+30  1.0000E+30  1.0000E+30  1.0000E+30   33.64       33.58       33.52       33.48       33.44    
        33.42       33.42       33.46       33.54       33.68       33.85       33.99       34.11      1.0000E+30  1.0000E+30
  39   1.0000E+30  1.0000E+30  1.0000E+30  1.0000E+30  1.0000E+30   33.26       33.24       33.21       33.19       33.17    
        33.16       33.17       33.21       33.30       33.46       33.74       33.88      1.0000E+30  1.0000E+30  1.0000E+30
  40   1.0000E+30  1.0000E+30  1.0000E+30  1.0000E+30  1.0000E+30   33.01       33.00       32.99       32.99       32.98    
        32.98       32.99       33.02       33.07       33.18       33.76      1.0000E+30  1.0000E+30  1.0000E+30  1.0000E+30
1
  HEAD IN LAYER   3 AT END OF TIME STEP   1 IN STRESS PERIOD    1
  ---------------------------------------------------------------------------

            1           2           3           4           5           6           7           8           9          10
           11          12          13          14          15          16          17          18          19          20
 ........................................................................................................................
   1    39.34       39.27       39.14       38.94       38.71       38.45       38.15       37.84       37.52       37.19    
        36.86       36.54       36.22       35.89       35.58       35.31       35.27       35.28       35.30       35.31    
   2    39.35       39.28       39.14       38.95       38.72       38.45       38.14       37.83       37.50       37.17    
        36.84       36.52       36.20       35.88       35.57       35.30       35.27       35.27       35.29       35.30    
   3    39.38       39.31       39.17       38.97       38.73       38.45       38.14       37.81       37.47       37.14    
        36.81       36.49       36.17       35.85       35.55       35.28       35.25       35.26       35.27       35.29    
   4    39.42       39.34       39.20       38.99       38.74       38.45       38.12       37.78       37.43       37.08    
        36.75       36.44       36.12       35.81       35.52       35.26       35.22       35.23       35.25       35.26    
   5    39.47       39.40       39.25       39.03       38.76       38.45       38.10       37.74       37.37       37.01    
        36.68       36.36       36.06       35.76       35.47       35.22       35.19       35.20       35.21       35.22    
   6    39.54       39.47       39.31       39.09       38.80       38.45       38.07       37.67       37.28       36.91    
        36.58       36.28       35.98       35.69       35.42       35.18       35.14       35.15       35.17       35.18    
   7    39.63       39.56       39.41       39.17       38.84       38.45       38.02       37.56       37.15       36.78    
        36.46       36.17       35.89       35.61       35.35       35.12       35.09       35.10       35.12       35.13    
   8    39.74       39.67       39.55       39.32       38.88       38.44       37.96       37.39       36.96       36.61    
        36.32       36.05       35.78       35.52       35.28       35.06       35.03       35.04       35.06       35.08    
   9    39.85       39.81       39.74       39.66      1.0000E+30  1.0000E+30  1.0000E+30   37.04       36.68       36.40    
        36.15       35.91       35.67       35.43       35.20       35.00       34.97       34.98       35.01       35.03    
  10    39.96       39.93       39.90       39.86      1.0000E+30  1.0000E+30  1.0000E+30  1.0000E+30   36.31       36.17    
        35.98       35.77       35.55       35.33       35.12       34.94       34.94       34.93       34.97       34.99    
  11    40.04       40.02       40.00       39.99      1.0000E+30  1.0000E+30  1.0000E+30  1.0000E+30   36.07       35.98    
        35.83       35.65       35.44       35.24       35.05       34.90       34.89       34.91       34.94       34.96    
  12    40.07       40.06       40.05       40.04      1.0000E+30  1.0000E+30  1.0000E+30  1.0000E+30   35.90       35.83    
        35.70       35.54       35.36       35.20       35.01       34.87       34.88       34.90       34.93       34.95    
  13    40.06       40.06       40.05       40.05      1.0000E+30  1.0000E+30  1.0000E+30  1.0000E+30   35.77       35.71    
        35.61       35.47       35.31       35.14       34.99       34.86       34.87       34.90       34.93       34.95    
  14    40.01       40.01       40.00       40.00      1.0000E+30  1.0000E+30  1.0000E+30  1.0000E+30   35.68       35.63    
        35.54       35.42       35.27       35.12       34.98       34.86       34.87       34.90       34.93       34.95    
  15    39.92       39.92       39.91       39.91      1.0000E+30  1.0000E+30  1.0000E+30  1.0000E+30   35.62       35.57    
        35.49       35.38       35.25       35.11       34.97       34.85       34.87       34.90       34.93       34.95    
  16    39.79       39.79       39.79       39.78      1.0000E+30  1.0000E+30  1.0000E+30  1.0000E+30   35.57       35.53    
        35.45       35.35       35.22       35.09       34.96       34.84       34.86       34.89       34.92       34.94    
  17    39.63       39.62       39.62       39.62      1.0000E+30  1.0000E+30  1.0000E+30  1.0000E+30   35.53       35.49    
        35.42       35.32       35.20       35.07       34.94       34.83       34.85       34.88       34.91       34.93    
  18    39.43       39.42       39.42       39.41      1.0000E+30  1.0000E+30  1.0000E+30  1.0000E+30   35.51       35.47    
        35.39       35.29       35.17       35.04       34.91       34.80       34.83       34.87       34.90       34.92    
  19    39.20       39.19       39.18       39.17      1.0000E+30  1.0000E+30  1.0000E+30  1.0000E+30   35.50       35.46    
        35.37       35.27       35.14       35.01       34.88       34.78       34.81       34.85       34.88       34.90    
  20    38.93       38.92       38.90       38.89      1.0000E+30  1.0000E+30  1.0000E+30  1.0000E+30   35.51       35.45    
        35.36       35.25       35.12       34.98       34.85       34.75       34.78       34.83       34.87       34.89    
  21    38.64       38.62       38.59       38.57      1.0000E+30  1.0000E+30  1.0000E+30  1.0000E+30   35.54       35.47    
        35.36       35.24       35.10       34.96       34.85       34.74       34.76       34.81       34.85       34.87    
  22    38.33       38.30       38.24       38.18      1.0000E+30  1.0000E+30   35.89       35.79       35.63       35.49    
        35.36       35.23       35.08       34.94       34.82       34.72       34.75       34.80       34.83       34.86    
  23    38.02       37.97       37.87       37.70       37.38      1.0000E+30   35.95       35.82       35.66       35.50    
        35.35       35.21       35.07       34.94       34.81       34.72       34.74       34.79       34.82       34.84    
  24    37.72       37.66       37.54       37.33       37.01       36.53       36.12       35.87       35.67       35.49    
        35.33       35.19       35.05       34.92       34.80       34.71       34.73       34.77       34.81       34.83    
  25    37.43       37.37       37.24       37.05       36.77       36.43       36.11       35.85       35.64       35.45    
        35.28       35.14       35.02       34.90       34.79       34.69       34.72       34.76       34.79       34.81    
  26    37.17       37.11       36.98       36.80       36.56       36.29       36.02       35.78       35.57       35.38    
        35.22       35.09       34.97       34.86       34.76       34.67       34.70       34.74       34.77       34.79    
  27    36.93       36.87       36.75       36.58       36.36       36.13       35.90       35.68       35.48       35.30    
        35.18       35.03       34.92       34.82       34.73       34.65       34.68       34.72       34.75       34.77    
  28    36.71       36.65       36.53       36.37       36.17       35.96       35.75       35.55       35.38       35.22    
        35.08       34.97       34.87       34.78       34.69       34.62       34.65       34.69       34.72       34.74    
  29    36.51       36.45       36.34       36.18       35.99       35.78       35.59       35.42       35.27       35.13    
        35.01       34.90       34.81       34.73       34.65       34.58       34.62       34.66       34.69       34.71    
  30    36.34       36.27       36.15       36.00       35.81       35.62       35.46       35.28       35.15       35.03    
        34.92       34.83       34.74       34.67       34.59       34.54       34.58       34.62       34.65       34.67    
  31    36.20       36.12       35.99       35.83       35.65       35.47       35.29       35.15       35.02       34.91    
        34.81       34.73       34.65       34.59       34.53       34.48       34.53       34.57       34.61       34.63    
  32    36.11       35.99       35.84       35.67       35.49       35.31       35.15       35.01       34.89       34.78    
        34.68       34.60       34.54       34.49       34.45       34.42       34.47       34.52       34.57       34.59    
  33   1.0000E+30   35.85       35.68       35.50       35.32       35.14       34.98       34.84       34.72       34.62    
        34.53       34.45       34.40       34.37       34.35       34.35       34.41       34.47       34.51       34.54    
  34   1.0000E+30  1.0000E+30   35.51       35.31       35.11       34.94       34.78       34.65       34.53       34.43    
        34.35       34.28       34.24       34.23       34.24       34.26       34.34       34.41       34.46       34.50    
  35   1.0000E+30  1.0000E+30  1.0000E+30   35.10       34.86       34.69       34.54       34.42       34.31       34.22    
        34.14       34.09       34.09       34.08       34.12       34.17       34.26       34.34       34.40       34.46    
  36   1.0000E+30  1.0000E+30  1.0000E+30  1.0000E+30   34.53       34.40       34.26       34.15       34.06       33.98    
        33.92       33.89       33.89       33.92       33.99       34.07       34.17       34.26       34.31      1.0000E+30
  37   1.0000E+30  1.0000E+30  1.0000E+30  1.0000E+30   34.32       34.08       33.95       33.85       33.78       33.72    
        33.69       33.67       33.69       33.75       33.85       33.96       34.08       34.18       34.26      1.0000E+30
  38   1.0000E+30  1.0000E+30  1.0000E+30  1.0000E+30  1.0000E+30   33.65       33.60       33.54       33.50       33.46    
        33.44       33.45       33.48       33.56       33.69       33.84       33.98       34.09      1.0000E+30  1.0000E+30
  39   1.0000E+30  1.0000E+30  1.0000E+30  1.0000E+30  1.0000E+30   33.32       33.30       33.27       33.24       33.22    
        33.22       33.23       33.28       33.36       33.51       33.72       33.87      1.0000E+30  1.0000E+30  1.0000E+30
  40   1.0000E+30  1.0000E+30  1.0000E+30  1.0000E+30  1.0000E+30   33.12       33.11       33.10       33.09       33.08    
        33.09       33.10       33.14       33.21       33.35       33.65      1.0000E+30  1.0000E+30  1.0000E+30  1.0000E+30

 HEAD WILL BE SAVED ON UNIT 1035 AT END OF TIME STEP    1, STRESS PERIOD    1


  SFR_1 BUDGET FOR ENTIRE MODEL AT END OF TIME STEP    1, STRESS PERIOD   1
  ------------------------------------------------------------------------------

     CUMULATIVE SFR_1      L**3       RATES FOR THIS TIME STEP      L**3/T
     ------------------                 ------------------------

           IN:                                      IN:
           ---                                      ---
                 GWF =        3614.6727                   GWF =        3614.6727
            RAINFALL =           0.0000              RAINFALL =           0.0000
         EVAPORATION =           0.0000           EVAPORATION =           0.0000
              RUNOFF =           0.0000                RUNOFF =           0.0000
          EXT-INFLOW =         100.0000            EXT-INFLOW =         100.0000
         EXT-OUTFLOW =           0.0000           EXT-OUTFLOW =           0.0000
             STORAGE =           0.0000               STORAGE =           0.0000

            TOTAL IN =        3714.6727              TOTAL IN =        3714.6727

          OUT:                                     OUT:
          ----                                     ----
                 GWF =           0.0000                   GWF =           0.0000
            RAINFALL =           0.0000              RAINFALL =           0.0000
         EVAPORATION =           0.0000           EVAPORATION =           0.0000
              RUNOFF =           0.0000                RUNOFF =           0.0000
          EXT-INFLOW =           0.0000            EXT-INFLOW =           0.0000
         EXT-OUTFLOW =        3714.6727           EXT-OUTFLOW =        3714.6727
             STORAGE =           0.0000               STORAGE =           0.0000

           TOTAL OUT =        3714.6727             TOTAL OUT =        3714.6727

            IN - OUT =           0.0000              IN - OUT =           0.0000

 PERCENT DISCREPANCY =           0.00     PERCENT DISCREPANCY =           0.00



  VOLUME BUDGET FOR ENTIRE MODEL AT END OF TIME STEP    1, STRESS PERIOD   1
  ---------------------------------------------------------------------------------------------------

     CUMULATIVE VOLUME      L**3       RATES FOR THIS TIME STEP      L**3/T          PACKAGE NAME    
     ------------------                 ------------------------                     ----------------

           IN:                                      IN:
           ---                                      ---
              STO-SS =          67.5894                STO-SS =          67.5894     STORAGE         
              STO-SY =        5937.7003                STO-SY =        5937.7003     STORAGE         
                 WEL =         945.0000                   WEL =         945.0000     WEL-1           
                 GHB =        1015.8069                   GHB =        1015.8069     GHB-1           
                 RCH =        2722.0536                   RCH =        2722.0536     RCH-1           
                 SFR =           0.0000                   SFR =           0.0000     SFR_1           

            TOTAL IN =       10688.1502              TOTAL IN =       10688.1502

          OUT:                                     OUT:
          ----                                     ----
              STO-SS =          67.0372                STO-SS =          67.0372     STORAGE         
              STO-SY =        7005.2666                STO-SY =        7005.2666     STORAGE         
                 WEL =           0.0000                   WEL =           0.0000     WEL-1           
                 GHB =           0.0000                   GHB =           0.0000     GHB-1           
                 RCH =           0.0000                   RCH =           0.0000     RCH-1           
                 SFR =        3615.6907                   SFR =        3615.6907     SFR_1           

           TOTAL OUT =       10687.9945             TOTAL OUT =       10687.9945

            IN - OUT =           0.1557              IN - OUT =           0.1557

 PERCENT DISCREPANCY =           0.00     PERCENT DISCREPANCY =           0.00




         TIME SUMMARY AT END OF TIME STEP    1 IN STRESS PERIOD    1
                    SECONDS     MINUTES      HOURS       DAYS        YEARS
                    -----------------------------------------------------------
   TIME STEP LENGTH  86400.      1440.0      24.000      1.0000     2.73785E-03
 STRESS PERIOD TIME  86400.      1440.0      24.000      1.0000     2.73785E-03
         TOTAL TIME  86400.      1440.0      24.000      1.0000     2.73785E-03


end timestep

