                                   MODFLOW 6
                U.S. GEOLOGICAL SURVEY MODULAR HYDROLOGIC MODEL
                          GROUNDWATER FLOW MODEL (GWF)
                            VERSION 6.1.2 06/15/2020
                               ***DEVELOP MODE***

   MODFLOW 6 compiled Aug 03 2020 12:21:56 with IFORT compiler (ver. 19.0.4)

This software is preliminary or provisional and is subject to 
revision. It is being provided to meet the need for timely best 
science. The software has not received final approval by the U.S. 
Geological Survey (USGS). No warranty, expressed or implied, is made 
by the USGS or the U.S. Government as to the functionality of the 
software and related material nor shall the fact of release 
constitute any such warranty. The software is provided on the 
condition that neither the USGS nor the U.S. Government shall be held 
liable for any damages resulting from the authorized or unauthorized 
use of the software.


System command used to initiate simulation:
mf6

MODFLOW was compiled using uniform precision.

Real Variables
  KIND: 8
  TINY (smallest non-zero value):    2.225074-308
  HUGE (largest value):    1.797693+308
  PRECISION: 15
  BIT SIZE: 64

Integer Variables
  KIND: 4
  HUGE (largest value): 2147483647
  BIT SIZE: 32

Long Integer Variables
  KIND: 8
  HUGE (largest value): 9223372036854775807
  BIT SIZE: 64

Logical Variables
  KIND: 4
  BIT SIZE: 32
 

 OPENED freyberg6.dis
 FILE TYPE:DIS6                   UNIT 1005   STATUS:OLD                 
 FORMAT:FORMATTED              ACCESS:SEQUENTIAL          
 ACTION:READ                


 OPENED freyberg6.ic
 FILE TYPE:IC6                    UNIT 1006   STATUS:OLD                 
 FORMAT:FORMATTED              ACCESS:SEQUENTIAL          
 ACTION:READ                


 OPENED freyberg6.npf
 FILE TYPE:NPF6                   UNIT 1007   STATUS:OLD                 
 FORMAT:FORMATTED              ACCESS:SEQUENTIAL          
 ACTION:READ                


 OPENED freyberg6.sto
 FILE TYPE:STO6                   UNIT 1008   STATUS:OLD                 
 FORMAT:FORMATTED              ACCESS:SEQUENTIAL          
 ACTION:READ                


 OPENED freyberg6.oc
 FILE TYPE:OC6                    UNIT 1009   STATUS:OLD                 
 FORMAT:FORMATTED              ACCESS:SEQUENTIAL          
 ACTION:READ                


 OPENED freyberg6.wel
 FILE TYPE:WEL6                   UNIT 1010   STATUS:OLD                 
 FORMAT:FORMATTED              ACCESS:SEQUENTIAL          
 ACTION:READ                


 OPENED freyberg6.rch
 FILE TYPE:RCH6                   UNIT 1011   STATUS:OLD                 
 FORMAT:FORMATTED              ACCESS:SEQUENTIAL          
 ACTION:READ                


 OPENED freyberg6.ghb
 FILE TYPE:GHB6                   UNIT 1012   STATUS:OLD                 
 FORMAT:FORMATTED              ACCESS:SEQUENTIAL          
 ACTION:READ                


 OPENED freyberg6.sfr
 FILE TYPE:SFR6                   UNIT 1013   STATUS:OLD                 
 FORMAT:FORMATTED              ACCESS:SEQUENTIAL          
 ACTION:READ                


 OPENED head.obs
 FILE TYPE:OBS6                   UNIT 1014   STATUS:OLD                 
 FORMAT:FORMATTED              ACCESS:SEQUENTIAL          
 ACTION:READ                

 NAMEFILE OPTIONS:
    NEWTON-RAPHSON method enabled for the model.

 DIS -- STRUCTURED GRID DISCRETIZATION PACKAGE, VERSION 2 : 3/27/2014 - INPUT READ FROM UNIT 1005


 PROCESSING DISCRETIZATION OPTIONS
    MODEL LENGTH UNIT IS METERS
 END OF DISCRETIZATION OPTIONS
 PROCESSING DISCRETIZATION DIMENSIONS
    NLAY =       3
    NROW =      40
    NCOL =      20
 END OF DISCRETIZATION DIMENSIONS
 PROCESSING GRIDDATA

                     DELR =   250.0000    

                     DELC =   250.0000    

 TOP ELEVATION OF LAYER 1

            1       2       3       4       5       6       7       8       9      10      11      12      13      14      15
           16      17      18      19      20
 ............................................................................................................................
   1     41.4    41.3    41.2    41.0    40.7    40.4    40.1    39.8    39.4    39.1    38.7    38.4    38.1    37.7    37.3
         36.8    37.0    37.0    37.1    37.1
   2     41.4    41.3    41.2    41.0    40.7    40.4    40.1    39.8    39.4    39.1    38.7    38.4    38.0    37.7    37.3
         36.8    37.0    37.0    37.1    37.1
   3     41.4    41.4    41.2    41.0    40.7    40.4    40.1    39.8    39.4    39.0    38.7    38.3    38.0    37.6    37.3
         36.8    36.9    37.0    37.1    37.1
   4     41.5    41.4    41.2    41.0    40.7    40.5    40.1    39.7    39.4    39.0    38.6    38.3    37.9    37.6    37.2
         36.8    36.9    37.0    37.0    37.1
   5     41.5    41.5    41.3    41.1    40.8    40.4    40.1    39.7    39.3    38.9    38.5    38.2    37.9    37.5    37.2
         36.8    36.9    37.0    37.0    37.0
   6     41.6    41.5    41.4    41.1    40.8    40.5    40.1    39.6    39.2    38.8    38.4    38.1    37.8    37.5    37.1
         36.7    36.8    36.9    36.9    37.0
   7     41.7    41.6    41.5    41.2    40.9    40.5    40.0    39.5    39.1    38.6    38.3    38.0    37.7    37.4    37.1
         36.7    36.8    36.8    36.9    36.9
   8     41.8    41.7    41.6    41.4    40.9    40.5    40.0    39.3    38.9    38.4    38.1    37.9    37.6    37.3    37.0
         36.6    36.7    36.8    36.8    36.9
   9     41.9    41.9    41.8    41.7 -1050.0 -1050.0 -1050.0    38.9    38.5    38.2    38.0    37.7    37.5    37.2    36.9
         36.5    36.5    36.7    36.7    36.8
  10     42.0    42.0    42.0    41.9 -1050.0 -1050.0 -1050.0 -1050.0    38.2    38.0    37.8    37.6    37.3    37.0    36.8
         36.4    36.3    36.5    36.7    36.7
  11     42.1    42.1    42.1    42.1 -1050.0 -1050.0 -1050.0 -1050.0    37.9    37.8    37.6    37.4    37.2    36.9    36.7
         36.4    36.5    36.6    36.7    36.7
  12     42.1    42.1    42.1    42.1 -1050.0 -1050.0 -1050.0 -1050.0    37.7    37.7    37.5    37.3    37.0    36.6    36.6
         36.4    36.5    36.6    36.7    36.7
  13     42.1    42.1    42.1    42.1 -1050.0 -1050.0 -1050.0 -1050.0    37.6    37.5    37.4    37.2    37.0    36.8    36.6
         36.4    36.6    36.6    36.7    36.7
  14     42.1    42.1    42.1    42.1 -1050.0 -1050.0 -1050.0 -1050.0    37.5    37.5    37.3    37.2    37.0    36.8    36.7
         36.4    36.6    36.7    36.7    36.7
  15     42.0    42.0    42.0    42.0 -1050.0 -1050.0 -1050.0 -1050.0    37.5    37.4    37.3    37.2    37.0    36.9    36.7
         36.4    36.6    36.7    36.7    36.7
  16     41.9    41.9    41.8    41.8 -1050.0 -1050.0 -1050.0 -1050.0    37.4    37.4    37.3    37.2    37.0    36.8    36.7
         36.4    36.6    36.7    36.7    36.7
  17     41.7    41.7    41.7    41.7 -1050.0 -1050.0 -1050.0 -1050.0    37.4    37.3    37.2    37.1    37.0    36.8    36.7
         36.4    36.6    36.6    36.7    36.7
  18     41.5    41.5    41.4    41.5 -1050.0 -1050.0 -1050.0 -1050.0    37.3    37.3    37.2    37.1    37.0    36.8    36.6
         36.4    36.5    36.6    36.7    36.7
  19     41.2    41.2    41.2    41.2 -1050.0 -1050.0 -1050.0 -1050.0    37.3    37.3    37.2    37.1    36.9    36.7    36.6
         36.4    36.5    36.6    36.7    36.7
  20     41.0    40.9    40.9    40.9 -1050.0 -1050.0 -1050.0 -1050.0    37.3    37.3    37.2    37.0    36.9    36.7    36.5
         36.3    36.5    36.6    36.6    36.7
  21     40.6    40.6    40.6    40.6 -1050.0 -1050.0 -1050.0 -1050.0    37.4    37.3    37.2    37.0    36.8    36.6    36.2
         36.3    36.4    36.6    36.6    36.7
  22     40.3    40.3    40.2    40.2 -1050.0 -1050.0    37.7    37.6    37.4    37.3    37.2    37.0    36.8    36.6    36.4
         36.3    36.4    36.5    36.6    36.6
  23     40.0    39.9    39.8    39.7    39.3 -1050.0    37.8    37.7    37.5    37.3    37.1    37.0    36.8    36.7    36.5
         36.3    36.4    36.5    36.6    36.6
  24     39.7    39.6    39.5    39.3    39.0    38.4    38.0    37.7    37.5    37.3    37.1    37.0    36.8    36.7    36.5
         36.3    36.4    36.5    36.6    36.6
  25     39.4    39.3    39.2    39.0    38.7    38.3    38.0    37.7    37.4    37.2    37.0    36.9    36.8    36.6    36.5
         36.3    36.4    36.5    36.6    36.6
  26     39.1    39.0    38.9    38.7    38.4    38.1    37.9    37.6    37.4    37.1    36.9    36.8    36.7    36.6    36.5
         36.3    36.4    36.5    36.6    36.6
  27     38.8    38.8    38.6    38.5    38.2    38.0    37.7    37.5    37.2    37.0    36.6    36.7    36.7    36.6    36.4
         36.3    36.4    36.5    36.5    36.6
  28     38.6    38.5    38.4    38.2    38.0    37.8    37.5    37.3    37.1    36.9    36.7    36.7    36.6    36.5    36.4
         36.2    36.4    36.4    36.5    36.5
  29     38.4    38.3    38.2    38.0    37.8    37.5    37.3    37.1    37.0    36.9    36.7    36.7    36.6    36.5    36.4
         36.2    36.3    36.4    36.5    36.5
  30     38.2    38.1    38.0    37.8    37.6    37.3    36.8    36.9    36.9    36.8    36.7    36.6    36.5    36.4    36.3
         36.2    36.3    36.4    36.4    36.5
  31     38.1    38.0    37.8    37.7    37.4    37.2    37.0    36.9    36.8    36.7    36.6    36.5    36.4    36.3    36.3
         36.1    36.3    36.3    36.4    36.4
  32     38.0    37.8    37.7    37.5    37.3    37.1    36.9    36.8    36.7    36.6    36.5    36.4    36.3    36.2    36.2
         36.1    36.2    36.3    36.3    36.4
  33  -1050.0    37.7    37.5    37.3    37.1    36.9    36.8    36.6    36.5    36.4    36.3    36.2    36.1    36.1    36.1
         36.0    36.2    36.2    36.3    36.3
  34  -1050.0 -1050.0    37.3    37.1    36.9    36.7    36.6    36.4    36.3    36.2    36.1    36.0    35.9    35.9    36.0
         36.0    36.1    36.2    36.2    36.3
  35  -1050.0 -1050.0 -1050.0    36.9    36.6    36.5    36.3    36.2    36.1    35.9    35.8    35.7    35.4    35.7    35.8
         35.9    36.0    36.1    36.2    36.2
  36  -1050.0 -1050.0 -1050.0 -1050.0    36.3    36.2    36.0    35.9    35.8    35.7    35.6    35.5    35.5    35.6    35.7
         35.8    35.9    36.0    36.1 -1050.0
  37  -1050.0 -1050.0 -1050.0 -1050.0    36.1    35.8    35.6    35.5    35.4    35.4    35.3    35.3    35.3    35.4    35.5
         35.7    35.8    35.9    36.0 -1050.0
  38  -1050.0 -1050.0 -1050.0 -1050.0 -1050.0    35.3    35.2    35.1    35.1    35.0    35.0    35.0    35.0    35.1    35.3
         35.6    35.7    35.9 -1050.0 -1050.0
  39  -1050.0 -1050.0 -1050.0 -1050.0 -1050.0    34.7    34.7    34.7    34.7    34.6    34.6    34.6    34.7    34.7    35.0
         35.5    35.6 -1050.0 -1050.0 -1050.0
  40  -1050.0 -1050.0 -1050.0 -1050.0 -1050.0    34.1    34.1    34.1    34.1    34.1    34.1    34.1    34.1    34.1    34.1
         34.1 -1050.0 -1050.0 -1050.0 -1050.0

   MODEL LAYER BOTTOM EL. =   32.50000     FOR LAYER 1

   MODEL LAYER BOTTOM EL. =   30.00000     FOR LAYER 2

   MODEL LAYER BOTTOM EL. FOR LAYER 3

            1       2       3       4       5       6       7       8       9      10      11      12      13      14      15
           16      17      18      19      20
 ............................................................................................................................
   1      8.9     8.7     8.4     8.0     7.6     7.2     6.6     6.1     5.5     5.0     4.6     4.5     4.5     4.7     5.0
          5.3     5.5     5.6     5.6     5.5
   2      9.2     9.0     8.7     8.3     7.9     7.4     6.8     6.2     5.5     4.7     4.2     4.1     4.2     4.6     5.0
          5.3     5.6     5.7     5.6     5.5
   3      9.6     9.4     9.1     8.7     8.2     7.7     7.1     6.4     5.5     4.6     3.7     3.6     4.0     4.4     4.9
          5.4     5.8     5.8     5.6     5.5
   4     10.0     9.8     9.5     9.1     8.6     8.1     7.4     6.7     5.9     4.8     3.0     3.5     3.9     4.3     4.8
          5.4     6.0     5.7     5.5     5.3
   5     10.5    10.3    10.0     9.6     9.1     8.5     7.8     7.1     6.5     6.0     4.4     3.9     4.0     4.2     4.6
          5.0     5.4     5.4     5.2     5.1
   6     11.0    10.8    10.5    10.1     9.5     8.9     8.2     7.4     6.8     6.0     5.0     4.3     4.1     4.1     4.3
          4.5     4.8     4.8     4.8     4.8
   7     11.5    11.4    11.1    10.6    10.0     9.2     8.4     7.6     6.8     6.0     5.2     4.5     4.1     3.9     3.9
          4.0     4.2     4.3     4.4     4.5
   8     12.1    12.0    11.8    11.2    10.5     9.6     8.7     7.7     6.8     5.9     5.1     4.4     4.0     3.7     3.5
          3.5     3.7     3.9     4.0     4.1
   9     12.6    12.7    12.4    11.8    10.9     9.9     8.8     7.7     6.7     5.8     5.0     4.3     3.7     3.4     3.2
          3.0     3.3     3.5     3.7     3.8
  10     13.0    13.3    13.2    12.4    11.2    10.0     8.8     7.7     6.6     5.6     4.7     4.0     3.4     3.1     2.9
          2.9     3.0     3.2     3.4     3.6
  11     13.1    13.5    14.0    12.6    11.2     9.9     8.7     7.5     6.3     5.3     4.4     3.6     3.0     2.8     2.7
          2.7     2.8     3.0     3.2     3.4
  12     12.8    13.1    13.0    12.1    10.9     9.6     8.4     7.1     6.0     4.9     4.0     3.2     2.7     2.5     2.5
          2.5     2.7     2.9     3.1     3.2
  13     12.3    12.3    12.1    11.4    10.3     9.2     8.0     6.8     5.6     4.5     3.5     2.8     2.3     2.2     2.3
          2.4     2.6     2.8     3.0     3.1
  14     11.7    11.6    11.2    10.6     9.7     8.6     7.5     6.3     5.2     4.0     3.0     2.2     1.9     1.9     2.1
          2.3     2.5     2.8     3.0     3.1
  15     11.1    10.9    10.5     9.8     9.0     8.1     7.0     5.9     4.8     3.7     2.6     1.5     1.6     1.8     2.0
          2.3     2.5     2.8     3.0     3.1
  16     10.5    10.2     9.8     9.2     8.4     7.5     6.6     5.5     4.5     3.5     2.5     1.8     1.6     1.7     1.9
          2.2     2.6     2.9     3.0     3.0
  17      9.9     9.6     9.2     8.6     7.9     7.1     6.2     5.2     4.3     3.4     2.6     2.0     1.7     1.7     1.9
          2.2     2.6     3.0     3.0     3.0
  18      9.4     9.1     8.7     8.1     7.4     6.7     5.9     5.0     4.1     3.3     2.6     2.1     1.8     1.7     1.8
          2.1     2.4     2.7     2.8     2.8
  19      9.0     8.7     8.2     7.7     7.1     6.4     5.6     4.8     4.0     3.2     2.6     2.1     1.7     1.6     1.7
          1.9     2.2     2.4     2.5     2.6
  20      8.6     8.3     7.9     7.4     6.8     6.1     5.4     4.6     3.8     3.1     2.5     2.0     1.7     1.5     1.6
          1.8     2.0     2.2     2.3     2.4
  21      8.2     7.9     7.5     7.1     6.5     5.9     5.2     4.5     3.7     3.0     2.4     1.9     1.6     1.5     1.5
          1.6     1.8     2.0     2.1     2.2
  22      8.0     7.7     7.3     6.9     6.4     5.8     5.1     4.4     3.6     2.9     2.2     1.7     1.5     1.4     1.4
          1.5     1.7     1.8     1.9     2.0
  23      7.8     7.5     7.2     6.7     6.3     5.7     5.1     4.4     3.6     2.9     2.1     1.5     1.4     1.4     1.4
          1.5     1.6     1.7     1.8     1.8
  24      7.6     7.3     7.0     6.7     6.2     5.7     5.1     4.4     3.7     2.9     2.2     1.7     1.5     1.4     1.4
          1.4     1.5     1.6     1.6     1.7
  25      7.4     7.2     6.9     6.6     6.3     5.8     5.3     4.6     3.8     3.0     2.3     1.9     1.6     1.4     1.4
          1.3     1.4     1.4     1.5     1.6
  26      7.2     7.1     6.8     6.6     6.3     6.0     5.6     4.9     4.0     3.0     2.5     2.0     1.7     1.5     1.3
          1.3     1.3     1.3     1.4     1.5
  27      7.1     6.9     6.8     6.6     6.4     6.1     5.9     5.4     4.5     3.5     2.7     2.2     1.8     1.5     1.3
          1.2     1.2     1.2     1.2     1.3
  28      6.9     6.8     6.6     6.5     6.3     6.2     6.1     6.0     4.8     3.7     2.9     2.3     1.8     1.4     1.2
          1.1     1.0     1.0     1.1     1.2
  29      6.8     6.6     6.5     6.3     6.2     6.0     5.8     5.4     4.6     3.7     2.9     2.2     1.7     1.4     1.1
          0.9     0.9     0.9     1.0     1.1
  30      6.6     6.4     6.3     6.1     5.9     5.7     5.4     5.0     4.3     3.5     2.7     2.1     1.6     1.2     0.9
          0.8     0.7     0.7     0.8     1.0
  31      6.4     6.2     6.1     5.9     5.7     5.4     5.0     4.5     3.9     3.2     2.4     1.8     1.3     1.0     0.7
          0.6     0.5     0.6     0.7     0.9
  32      6.2     6.0     5.9     5.7     5.4     5.1     4.7     4.2     3.5     2.8     2.1     1.4     1.0     0.7     0.5
          0.5     0.4     0.5     0.6     0.8
  33      6.0     5.8     5.7     5.4     5.1     4.8     4.4     3.9     3.2     2.5     1.7     1.0     0.6     0.5     0.4
          0.3     0.4     0.5     0.6     0.7
  34      5.8     5.6     5.4     5.2     4.9     4.6     4.2     3.7     3.0     2.2     1.4     0.5     0.3     0.3     0.2
          0.2     0.3     0.4     0.6     0.7
  35      5.6     5.5     5.3     5.0     4.7     4.4     4.0     3.5     3.0     2.1     1.2     0.5     0.2     0.2     0.2
          0.2     0.3     0.4     0.6     0.7
  36      5.5     5.3     5.1     4.9     4.6     4.2     3.8     3.4     2.8     2.0     1.2     0.5     0.2     0.1     0.1
          0.2     0.3     0.4     0.6     0.7
  37      5.3     5.2     4.9     4.7     4.4     4.1     3.7     3.2     2.7     1.9     1.2     0.6     0.3     0.2     0.2
          0.2     0.3     0.4     0.6     0.8
  38      5.2     5.0     4.8     4.6     4.3     4.0     3.7     3.2     2.7     2.0     1.3     0.7     0.4     0.3     0.3
          0.3     0.4     0.5     0.7     0.9
  39      5.1     4.9     4.7     4.5     4.2     4.0     3.6     3.3     2.8     2.0     1.3     0.7     0.4     0.3     0.4
          0.4     0.5     0.6     0.8     1.0
  40      5.0     4.8     4.6     4.4     4.1     3.9     3.6     3.3     3.0     2.1     1.3     0.5     0.5     0.5     0.5
          0.6     0.7     0.8     1.0     1.1

                  IDOMAIN FOR LAYER 1

          1     2     3     4     5     6     7     8     9    10    11    12    13    14    15    16    17    18    19    20
 ............................................................................................................................
   1      1     1     1     1     1     1     1     1     1     1     1     1     1     1     1     1     1     1     1     1
   2      1     1     1     1     1     1     1     1     1     1     1     1     1     1     1     1     1     1     1     1
   3      1     1     1     1     1     1     1     1     1     1     1     1     1     1     1     1     1     1     1     1
   4      1     1     1     1     1     1     1     1     1     1     1     1     1     1     1     1     1     1     1     1
   5      1     1     1     1     1     1     1     1     1     1     1     1     1     1     1     1     1     1     1     1
   6      1     1     1     1     1     1     1     1     1     1     1     1     1     1     1     1     1     1     1     1
   7      1     1     1     1     1     1     1     1     1     1     1     1     1     1     1     1     1     1     1     1
   8      1     1     1     1     1     1     1     1     1     1     1     1     1     1     1     1     1     1     1     1
   9      1     1     1     1     0     0     0     1     1     1     1     1     1     1     1     1     1     1     1     1
  10      1     1     1     1     0     0     0     0     1     1     1     1     1     1     1     1     1     1     1     1
  11      1     1     1     1     0     0     0     0     1     1     1     1     1     1     1     1     1     1     1     1
  12      1     1     1     1     0     0     0     0     1     1     1     1     1     1     1     1     1     1     1     1
  13      1     1     1     1     0     0     0     0     1     1     1     1     1     1     1     1     1     1     1     1
  14      1     1     1     1     0     0     0     0     1     1     1     1     1     1     1     1     1     1     1     1
  15      1     1     1     1     0     0     0     0     1     1     1     1     1     1     1     1     1     1     1     1
  16      1     1     1     1     0     0     0     0     1     1     1     1     1     1     1     1     1     1     1     1
  17      1     1     1     1     0     0     0     0     1     1     1     1     1     1     1     1     1     1     1     1
  18      1     1     1     1     0     0     0     0     1     1     1     1     1     1     1     1     1     1     1     1
  19      1     1     1     1     0     0     0     0     1     1     1     1     1     1     1     1     1     1     1     1
  20      1     1     1     1     0     0     0     0     1     1     1     1     1     1     1     1     1     1     1     1
  21      1     1     1     1     0     0     0     0     1     1     1     1     1     1     1     1     1     1     1     1
  22      1     1     1     1     0     0     1     1     1     1     1     1     1     1     1     1     1     1     1     1
  23      1     1     1     1     1     0     1     1     1     1     1     1     1     1     1     1     1     1     1     1
  24      1     1     1     1     1     1     1     1     1     1     1     1     1     1     1     1     1     1     1     1
  25      1     1     1     1     1     1     1     1     1     1     1     1     1     1     1     1     1     1     1     1
  26      1     1     1     1     1     1     1     1     1     1     1     1     1     1     1     1     1     1     1     1
  27      1     1     1     1     1     1     1     1     1     1     1     1     1     1     1     1     1     1     1     1
  28      1     1     1     1     1     1     1     1     1     1     1     1     1     1     1     1     1     1     1     1
  29      1     1     1     1     1     1     1     1     1     1     1     1     1     1     1     1     1     1     1     1
  30      1     1     1     1     1     1     1     1     1     1     1     1     1     1     1     1     1     1     1     1
  31      1     1     1     1     1     1     1     1     1     1     1     1     1     1     1     1     1     1     1     1
  32      1     1     1     1     1     1     1     1     1     1     1     1     1     1     1     1     1     1     1     1
  33      0     1     1     1     1     1     1     1     1     1     1     1     1     1     1     1     1     1     1     1
  34      0     0     1     1     1     1     1     1     1     1     1     1     1     1     1     1     1     1     1     1
  35      0     0     0     1     1     1     1     1     1     1     1     1     1     1     1     1     1     1     1     1
  36      0     0     0     0     1     1     1     1     1     1     1     1     1     1     1     1     1     1     1     0
  37      0     0     0     0     1     1     1     1     1     1     1     1     1     1     1     1     1     1     1     0
  38      0     0     0     0     0     1     1     1     1     1     1     1     1     1     1     1     1     1     0     0
  39      0     0     0     0     0     1     1     1     1     1     1     1     1     1     1     1     1     0     0     0
  40      0     0     0     0     0     1     1     1     1     1     1     1     1     1     1     1     0     0     0     0

                  IDOMAIN FOR LAYER 2

          1     2     3     4     5     6     7     8     9    10    11    12    13    14    15    16    17    18    19    20
 ............................................................................................................................
   1      1     1     1     1     1     1     1     1     1     1     1     1     1     1     1     1     1     1     1     1
   2      1     1     1     1     1     1     1     1     1     1     1     1     1     1     1     1     1     1     1     1
   3      1     1     1     1     1     1     1     1     1     1     1     1     1     1     1     1     1     1     1     1
   4      1     1     1     1     1     1     1     1     1     1     1     1     1     1     1     1     1     1     1     1
   5      1     1     1     1     1     1     1     1     1     1     1     1     1     1     1     1     1     1     1     1
   6      1     1     1     1     1     1     1     1     1     1     1     1     1     1     1     1     1     1     1     1
   7      1     1     1     1     1     1     1     1     1     1     1     1     1     1     1     1     1     1     1     1
   8      1     1     1     1     1     1     1     1     1     1     1     1     1     1     1     1     1     1     1     1
   9      1     1     1     1     0     0     0     1     1     1     1     1     1     1     1     1     1     1     1     1
  10      1     1     1     1     0     0     0     0     1     1     1     1     1     1     1     1     1     1     1     1
  11      1     1     1     1     0     0     0     0     1     1     1     1     1     1     1     1     1     1     1     1
  12      1     1     1     1     0     0     0     0     1     1     1     1     1     1     1     1     1     1     1     1
  13      1     1     1     1     0     0     0     0     1     1     1     1     1     1     1     1     1     1     1     1
  14      1     1     1     1     0     0     0     0     1     1     1     1     1     1     1     1     1     1     1     1
  15      1     1     1     1     0     0     0     0     1     1     1     1     1     1     1     1     1     1     1     1
  16      1     1     1     1     0     0     0     0     1     1     1     1     1     1     1     1     1     1     1     1
  17      1     1     1     1     0     0     0     0     1     1     1     1     1     1     1     1     1     1     1     1
  18      1     1     1     1     0     0     0     0     1     1     1     1     1     1     1     1     1     1     1     1
  19      1     1     1     1     0     0     0     0     1     1     1     1     1     1     1     1     1     1     1     1
  20      1     1     1     1     0     0     0     0     1     1     1     1     1     1     1     1     1     1     1     1
  21      1     1     1     1     0     0     0     0     1     1     1     1     1     1     1     1     1     1     1     1
  22      1     1     1     1     0     0     1     1     1     1     1     1     1     1     1     1     1     1     1     1
  23      1     1     1     1     1     0     1     1     1     1     1     1     1     1     1     1     1     1     1     1
  24      1     1     1     1     1     1     1     1     1     1     1     1     1     1     1     1     1     1     1     1
  25      1     1     1     1     1     1     1     1     1     1     1     1     1     1     1     1     1     1     1     1
  26      1     1     1     1     1     1     1     1     1     1     1     1     1     1     1     1     1     1     1     1
  27      1     1     1     1     1     1     1     1     1     1     1     1     1     1     1     1     1     1     1     1
  28      1     1     1     1     1     1     1     1     1     1     1     1     1     1     1     1     1     1     1     1
  29      1     1     1     1     1     1     1     1     1     1     1     1     1     1     1     1     1     1     1     1
  30      1     1     1     1     1     1     1     1     1     1     1     1     1     1     1     1     1     1     1     1
  31      1     1     1     1     1     1     1     1     1     1     1     1     1     1     1     1     1     1     1     1
  32      1     1     1     1     1     1     1     1     1     1     1     1     1     1     1     1     1     1     1     1
  33      0     1     1     1     1     1     1     1     1     1     1     1     1     1     1     1     1     1     1     1
  34      0     0     1     1     1     1     1     1     1     1     1     1     1     1     1     1     1     1     1     1
  35      0     0     0     1     1     1     1     1     1     1     1     1     1     1     1     1     1     1     1     1
  36      0     0     0     0     1     1     1     1     1     1     1     1     1     1     1     1     1     1     1     0
  37      0     0     0     0     1     1     1     1     1     1     1     1     1     1     1     1     1     1     1     0
  38      0     0     0     0     0     1     1     1     1     1     1     1     1     1     1     1     1     1     0     0
  39      0     0     0     0     0     1     1     1     1     1     1     1     1     1     1     1     1     0     0     0
  40      0     0     0     0     0     1     1     1     1     1     1     1     1     1     1     1     0     0     0     0

                  IDOMAIN FOR LAYER 3

          1     2     3     4     5     6     7     8     9    10    11    12    13    14    15    16    17    18    19    20
 ............................................................................................................................
   1      1     1     1     1     1     1     1     1     1     1     1     1     1     1     1     1     1     1     1     1
   2      1     1     1     1     1     1     1     1     1     1     1     1     1     1     1     1     1     1     1     1
   3      1     1     1     1     1     1     1     1     1     1     1     1     1     1     1     1     1     1     1     1
   4      1     1     1     1     1     1     1     1     1     1     1     1     1     1     1     1     1     1     1     1
   5      1     1     1     1     1     1     1     1     1     1     1     1     1     1     1     1     1     1     1     1
   6      1     1     1     1     1     1     1     1     1     1     1     1     1     1     1     1     1     1     1     1
   7      1     1     1     1     1     1     1     1     1     1     1     1     1     1     1     1     1     1     1     1
   8      1     1     1     1     1     1     1     1     1     1     1     1     1     1     1     1     1     1     1     1
   9      1     1     1     1     0     0     0     1     1     1     1     1     1     1     1     1     1     1     1     1
  10      1     1     1     1     0     0     0     0     1     1     1     1     1     1     1     1     1     1     1     1
  11      1     1     1     1     0     0     0     0     1     1     1     1     1     1     1     1     1     1     1     1
  12      1     1     1     1     0     0     0     0     1     1     1     1     1     1     1     1     1     1     1     1
  13      1     1     1     1     0     0     0     0     1     1     1     1     1     1     1     1     1     1     1     1
  14      1     1     1     1     0     0     0     0     1     1     1     1     1     1     1     1     1     1     1     1
  15      1     1     1     1     0     0     0     0     1     1     1     1     1     1     1     1     1     1     1     1
  16      1     1     1     1     0     0     0     0     1     1     1     1     1     1     1     1     1     1     1     1
  17      1     1     1     1     0     0     0     0     1     1     1     1     1     1     1     1     1     1     1     1
  18      1     1     1     1     0     0     0     0     1     1     1     1     1     1     1     1     1     1     1     1
  19      1     1     1     1     0     0     0     0     1     1     1     1     1     1     1     1     1     1     1     1
  20      1     1     1     1     0     0     0     0     1     1     1     1     1     1     1     1     1     1     1     1
  21      1     1     1     1     0     0     0     0     1     1     1     1     1     1     1     1     1     1     1     1
  22      1     1     1     1     0     0     1     1     1     1     1     1     1     1     1     1     1     1     1     1
  23      1     1     1     1     1     0     1     1     1     1     1     1     1     1     1     1     1     1     1     1
  24      1     1     1     1     1     1     1     1     1     1     1     1     1     1     1     1     1     1     1     1
  25      1     1     1     1     1     1     1     1     1     1     1     1     1     1     1     1     1     1     1     1
  26      1     1     1     1     1     1     1     1     1     1     1     1     1     1     1     1     1     1     1     1
  27      1     1     1     1     1     1     1     1     1     1     1     1     1     1     1     1     1     1     1     1
  28      1     1     1     1     1     1     1     1     1     1     1     1     1     1     1     1     1     1     1     1
  29      1     1     1     1     1     1     1     1     1     1     1     1     1     1     1     1     1     1     1     1
  30      1     1     1     1     1     1     1     1     1     1     1     1     1     1     1     1     1     1     1     1
  31      1     1     1     1     1     1     1     1     1     1     1     1     1     1     1     1     1     1     1     1
  32      1     1     1     1     1     1     1     1     1     1     1     1     1     1     1     1     1     1     1     1
  33      0     1     1     1     1     1     1     1     1     1     1     1     1     1     1     1     1     1     1     1
  34      0     0     1     1     1     1     1     1     1     1     1     1     1     1     1     1     1     1     1     1
  35      0     0     0     1     1     1     1     1     1     1     1     1     1     1     1     1     1     1     1     1
  36      0     0     0     0     1     1     1     1     1     1     1     1     1     1     1     1     1     1     1     0
  37      0     0     0     0     1     1     1     1     1     1     1     1     1     1     1     1     1     1     1     0
  38      0     0     0     0     0     1     1     1     1     1     1     1     1     1     1     1     1     1     0     0
  39      0     0     0     0     0     1     1     1     1     1     1     1     1     1     1     1     1     0     0     0
  40      0     0     0     0     0     1     1     1     1     1     1     1     1     1     1     1     0     0     0     0
 END PROCESSING GRIDDATA

 THE SPECIFIED IDOMAIN RESULTS IN A REDUCED NUMBER OF CELLS.
 NUMBER OF USER NODES: 2400
 NUMBER OF NODES IN SOLUTION: 2118



 NPF -- NODE PROPERTY FLOW PACKAGE, VERSION 1, 3/30/2015 INPUT READ FROM UNIT 1007


 PROCESSING NPF OPTIONS
    CELL-BY-CELL FLOW INFORMATION WILL BE SAVED TO BINARY FILE WHENEVER ICBCFL IS NOT ZERO.
 END OF NPF OPTIONS

 WEL   -- WEL PACKAGE, VERSION 8, 2/22/2014 INPUT READ FROM UNIT 1010

 PROCESSING WEL OPTIONS
    LISTS OF WEL CELLS WILL BE PRINTED.
    WEL FLOWS WILL BE PRINTED TO LISTING FILE.
    FLOWS WILL BE SAVED TO BUDGET FILE SPECIFIED IN OUTPUT CONTROL
 END OF WEL OPTIONS

 PROCESSING WEL DIMENSIONS
    MAXBOUND =       6
 END OF WEL DIMENSIONS

 GHB   -- GHB PACKAGE, VERSION 8, 2/22/2014 INPUT READ FROM UNIT 1012

 PROCESSING GHB OPTIONS
    LISTS OF GHB CELLS WILL BE PRINTED.
    GHB FLOWS WILL BE PRINTED TO LISTING FILE.
    FLOWS WILL BE SAVED TO BUDGET FILE SPECIFIED IN OUTPUT CONTROL
 END OF GHB OPTIONS

 PROCESSING GHB DIMENSIONS
    MAXBOUND =      30
 END OF GHB DIMENSIONS

 RCH   -- RCH PACKAGE, VERSION 8, 2/22/2014 INPUT READ FROM UNIT 1011

 PROCESSING RCH OPTIONS
    RECHARGE INPUT WILL BE READ AS ARRAY(S).
    FLOWS WILL BE SAVED TO BUDGET FILE SPECIFIED IN OUTPUT CONTROL
 END OF RCH OPTIONS

 SFR   -- SFR PACKAGE, VERSION 8, 2/22/2014 INPUT READ FROM UNIT 1013

 PROCESSING SFR OPTIONS
    SFR BOUNDARIES HAVE NAMES IN LAST COLUMN.

 OPENED sfr.obs
 FILE TYPE:OBS   UNIT 1016   STATUS:OLD                 
 FORMAT:FORMATTED              ACCESS:SEQUENTIAL          
 ACTION:READ                

    LISTS OF SFR CELLS WILL BE PRINTED.
    FLOWS WILL BE SAVED TO BUDGET FILE SPECIFIED IN OUTPUT CONTROL
    MAXIMUM DEPTH CHANGE VALUE (.1000000000000000E-03) SPECIFIED.
    UNIT CONVERSION VALUE (86400.00000000000) SPECIFIED.
 END OF SFR OPTIONS

 PROCESSING SFR DIMENSIONS
    NREACHES = 40
 END OF SFR DIMENSIONS

 PROCESSING SFR PACKAGEDATA
 END OF SFR PACKAGEDATA

 PROCESSING SFR CONNECTIONDATA
 END OF SFR CONNECTIONDATA

 IC -- INITIAL CONDITIONS PACKAGE, VERSION 8, 3/28/2015 INPUT READ FROM UNIT 1006
 PROCESSING GRIDDATA

     INITIAL HEAD FOR LAYER 1

               1          2          3          4          5          6          7          8          9         10         11
              12         13         14         15         16         17         18         19         20
 .............................................................................................................................
   1    39.4       39.4       39.2       39.0       38.8       38.5       38.2       37.9       37.6       37.2       36.9    
        36.6       36.2       35.9       35.5       35.1       35.2       35.3       35.3       35.3    
   2    39.4       39.4       39.2       39.0       38.8       38.5       38.2       37.9       37.6       37.2       36.9    
        36.6       36.2       35.9       35.5       35.1       35.2       35.3       35.3       35.3    
   3    39.5       39.4       39.2       39.0       38.8       38.5       38.2       37.9       37.5       37.2       36.8    
        36.5       36.2       35.8       35.5       35.0       35.2       35.3       35.3       35.3    
   4    39.5       39.4       39.3       39.1       38.8       38.5       38.2       37.8       37.5       37.1       36.8    
        36.5       36.1       35.8       35.4       35.0       35.2       35.2       35.3       35.3    
   5    39.6       39.5       39.3       39.1       38.8       38.5       38.2       37.8       37.4       37.0       36.7    
        36.4       36.1       35.7       35.4       35.0       35.1       35.2       35.2       35.3    
   6    39.6       39.6       39.4       39.2       38.9       38.5       38.2       37.7       37.3       36.9       36.6    
        36.3       36.0       35.7       35.4       35.0       35.1       35.1       35.2       35.2    
   7    39.7       39.6       39.5       39.2       38.9       38.5       38.1       37.6       37.2       36.8       36.5    
        36.2       35.9       35.6       35.3       34.9       35.0       35.1       35.1       35.2    
   8    39.8       39.7       39.6       39.4       39.0       38.5       38.1       37.5       37.0       36.6       36.3    
        36.1       35.8       35.5       35.2       34.9       34.9       35.0       35.1       35.1    
   9    39.9       39.9       39.8       39.7     -1000.     -1000.     -1000.       37.1       36.7       36.4       36.2    
        35.9       35.7       35.4       35.1       34.8       34.8       34.9       35.0       35.0    
  10    40.0       40.0       40.0       39.9     -1000.     -1000.     -1000.     -1000.       36.3       36.2       36.0    
        35.8       35.5       35.3       35.0       34.7       34.5       34.8       34.9       35.0    
  11    40.1       40.1       40.1       40.1     -1000.     -1000.     -1000.     -1000.       36.1       36.0       35.8    
        35.7       35.4       35.1       34.9       34.7       34.7       34.8       34.9       35.0    
  12    40.1       40.1       40.1       40.1     -1000.     -1000.     -1000.     -1000.       35.9       35.9       35.7    
        35.5       35.3       34.8       34.8       34.7       34.8       34.9       34.9       35.0    
  13    40.1       40.1       40.1       40.1     -1000.     -1000.     -1000.     -1000.       35.8       35.8       35.6    
        35.5       35.3       35.0       34.9       34.7       34.8       34.9       35.0       35.0    
  14    40.1       40.1       40.1       40.1     -1000.     -1000.     -1000.     -1000.       35.7       35.7       35.6    
        35.4       35.3       35.1       34.9       34.7       34.8       34.9       35.0       35.0    
  15    40.0       40.0       40.0       40.0     -1000.     -1000.     -1000.     -1000.       35.7       35.6       35.5    
        35.4       35.3       35.1       34.9       34.7       34.8       34.9       35.0       35.0    
  16    39.9       39.9       39.8       39.8     -1000.     -1000.     -1000.     -1000.       35.6       35.6       35.5    
        35.4       35.2       35.1       34.9       34.7       34.8       34.9       35.0       35.0    
  17    39.7       39.7       39.7       39.7     -1000.     -1000.     -1000.     -1000.       35.6       35.5       35.5    
        35.4       35.2       35.1       34.9       34.7       34.8       34.9       34.9       35.0    
  18    39.5       39.5       39.5       39.5     -1000.     -1000.     -1000.     -1000.       35.6       35.5       35.4    
        35.3       35.2       35.0       34.9       34.7       34.8       34.9       34.9       35.0    
  19    39.3       39.3       39.2       39.2     -1000.     -1000.     -1000.     -1000.       35.6       35.5       35.4    
        35.3       35.2       35.0       34.8       34.6       34.8       34.9       34.9       34.9    
  20    39.0       39.0       39.0       39.0     -1000.     -1000.     -1000.     -1000.       35.6       35.5       35.4    
        35.3       35.1       34.9       34.7       34.6       34.7       34.8       34.9       34.9    
  21    38.7       38.7       38.7       38.6     -1000.     -1000.     -1000.     -1000.       35.6       35.5       35.4    
        35.3       35.1       34.8       34.5       34.5       34.7       34.8       34.9       34.9    
  22    38.4       38.4       38.3       38.2     -1000.     -1000.       35.9       35.8       35.7       35.5       35.4    
        35.2       35.1       34.9       34.7       34.6       34.7       34.8       34.9       34.9    
  23    38.1       38.0       37.9       37.8       37.5     -1000.       36.0       35.9       35.7       35.5       35.4    
        35.2       35.1       34.9       34.7       34.6       34.7       34.8       34.9       34.9    
  24    37.8       37.7       37.6       37.4       37.1       36.6       36.2       35.9       35.7       35.5       35.3    
        35.2       35.1       34.9       34.8       34.6       34.7       34.8       34.8       34.9    
  25    37.5       37.4       37.3       37.1       36.8       36.4       36.1       35.9       35.7       35.4       35.3    
        35.1       35.0       34.9       34.8       34.6       34.7       34.8       34.8       34.9    
  26    37.2       37.2       37.1       36.8       36.6       36.3       36.1       35.8       35.6       35.3       35.1    
        35.1       35.0       34.9       34.7       34.6       34.7       34.8       34.8       34.8    
  27    37.0       36.9       36.8       36.6       36.4       36.2       35.9       35.7       35.5       35.2       34.8    
        34.9       34.9       34.8       34.7       34.5       34.7       34.7       34.8       34.8    
  28    36.8       36.7       36.6       36.4       36.2       36.0       35.7       35.5       35.4       35.2       35.0    
        34.9       34.9       34.8       34.7       34.5       34.6       34.7       34.8       34.8    
  29    36.6       36.5       36.4       36.2       36.0       35.7       35.5       35.4       35.3       35.1       35.0    
        34.9       34.8       34.7       34.6       34.5       34.6       34.7       34.7       34.8    
  30    36.4       36.3       36.2       36.0       35.8       35.5       35.1       35.2       35.1       35.0       34.9    
        34.9       34.8       34.7       34.6       34.5       34.6       34.6       34.7       34.7    
  31    36.3       36.2       36.0       35.9       35.7       35.4       35.2       35.1       35.0       34.9       34.8    
        34.8       34.7       34.6       34.5       34.4       34.5       34.6       34.7       34.7    
  32    36.2       36.0       35.9       35.7       35.5       35.3       35.1       35.0       34.9       34.8       34.7    
        34.6       34.6       34.5       34.5       34.4       34.5       34.6       34.6       34.6    
  33  -1000.       35.9       35.7       35.5       35.4       35.2       35.0       34.9       34.8       34.7       34.6    
        34.5       34.4       34.4       34.4       34.3       34.4       34.5       34.6       34.6    
  34  -1000.     -1000.       35.6       35.4       35.2       35.0       34.8       34.7       34.6       34.5       34.4    
        34.3       34.2       34.2       34.2       34.3       34.4       34.5       34.5       34.6    
  35  -1000.     -1000.     -1000.       35.1       34.9       34.7       34.6       34.5       34.3       34.2       34.1    
        34.0       33.8       34.0       34.1       34.2       34.3       34.4       34.5       34.5    
  36  -1000.     -1000.     -1000.     -1000.       34.6       34.4       34.3       34.2       34.1       34.0       33.9    
        33.8       33.8       33.9       34.0       34.1       34.2       34.3       34.4     -1000.    
  37  -1000.     -1000.     -1000.     -1000.       34.4       34.1       34.0       33.8       33.8       33.7       33.6    
        33.6       33.6       33.7       33.8       34.0       34.1       34.2       34.3     -1000.    
  38  -1000.     -1000.     -1000.     -1000.     -1000.       33.6       33.5       33.4       33.4       33.4       33.3    
        33.3       33.4       33.5       33.6       33.9       34.0       34.2     -1000.     -1000.    
  39  -1000.     -1000.     -1000.     -1000.     -1000.       33.1       33.1       33.0       33.0       33.0       33.0    
        33.0       33.0       33.1       33.3       33.8       33.9     -1000.     -1000.     -1000.    
  40  -1000.     -1000.     -1000.     -1000.     -1000.       32.5       32.5       32.5       32.5       32.5       32.5    
        32.5       32.5       32.5       32.5     -1000.     -1000.     -1000.     -1000.     -1000.    

     INITIAL HEAD FOR LAYER 2

               1          2          3          4          5          6          7          8          9         10         11
              12         13         14         15         16         17         18         19         20
 .............................................................................................................................
   1    39.4       39.4       39.2       39.0       38.8       38.5       38.2       37.9       37.6       37.2       36.9    
        36.6       36.2       35.9       35.5       35.1       35.2       35.3       35.3       35.3    
   2    39.4       39.4       39.2       39.0       38.8       38.5       38.2       37.9       37.6       37.2       36.9    
        36.6       36.2       35.9       35.5       35.1       35.2       35.3       35.3       35.3    
   3    39.5       39.4       39.2       39.0       38.8       38.5       38.2       37.9       37.5       37.2       36.8    
        36.5       36.2       35.8       35.5       35.1       35.2       35.2       35.3       35.3    
   4    39.5       39.4       39.3       39.0       38.8       38.5       38.2       37.8       37.5       37.1       36.8    
        36.5       36.1       35.8       35.4       35.0       35.2       35.2       35.3       35.3    
   5    39.6       39.5       39.3       39.1       38.8       38.5       38.2       37.8       37.4       37.0       36.7    
        36.4       36.1       35.7       35.4       35.0       35.1       35.2       35.2       35.3    
   6    39.6       39.6       39.4       39.2       38.9       38.5       38.1       37.7       37.3       36.9       36.6    
        36.3       36.0       35.7       35.4       35.0       35.1       35.1       35.2       35.2    
   7    39.7       39.6       39.5       39.2       38.9       38.5       38.1       37.6       37.2       36.8       36.5    
        36.2       35.9       35.6       35.3       34.9       35.0       35.1       35.1       35.2    
   8    39.8       39.7       39.6       39.4       39.0       38.5       38.1       37.5       37.0       36.6       36.3    
        36.1       35.8       35.5       35.2       34.9       34.9       35.0       35.1       35.1    
   9    39.9       39.9       39.8       39.7     -1000.     -1000.     -1000.       37.1       36.7       36.4       36.2    
        35.9       35.7       35.4       35.1       34.8       34.8       34.9       35.0       35.0    
  10    40.0       40.0       40.0       39.9     -1000.     -1000.     -1000.     -1000.       36.3       36.2       36.0    
        35.8       35.5       35.3       35.0       34.7       34.5       34.8       34.9       35.0    
  11    40.1       40.1       40.1       40.1     -1000.     -1000.     -1000.     -1000.       36.1       36.0       35.8    
        35.6       35.4       35.1       34.9       34.7       34.7       34.8       34.9       35.0    
  12    40.1       40.1       40.1       40.1     -1000.     -1000.     -1000.     -1000.       35.9       35.9       35.7    
        35.5       35.3       34.8       34.8       34.7       34.8       34.9       34.9       35.0    
  13    40.1       40.1       40.1       40.1     -1000.     -1000.     -1000.     -1000.       35.8       35.8       35.6    
        35.5       35.3       35.0       34.9       34.7       34.8       34.9       35.0       35.0    
  14    40.1       40.1       40.1       40.1     -1000.     -1000.     -1000.     -1000.       35.7       35.7       35.6    
        35.4       35.3       35.1       34.9       34.7       34.8       34.9       35.0       35.0    
  15    40.0       40.0       40.0       40.0     -1000.     -1000.     -1000.     -1000.       35.7       35.6       35.5    
        35.4       35.3       35.1       34.9       34.7       34.8       34.9       35.0       35.0    
  16    39.9       39.9       39.8       39.8     -1000.     -1000.     -1000.     -1000.       35.6       35.6       35.5    
        35.4       35.2       35.1       34.9       34.7       34.8       34.9       35.0       35.0    
  17    39.7       39.7       39.7       39.7     -1000.     -1000.     -1000.     -1000.       35.6       35.5       35.5    
        35.4       35.2       35.1       34.9       34.7       34.8       34.9       34.9       35.0    
  18    39.5       39.5       39.5       39.5     -1000.     -1000.     -1000.     -1000.       35.6       35.5       35.4    
        35.3       35.2       35.0       34.9       34.7       34.8       34.9       34.9       35.0    
  19    39.3       39.3       39.2       39.2     -1000.     -1000.     -1000.     -1000.       35.6       35.5       35.4    
        35.3       35.2       35.0       34.8       34.6       34.8       34.9       34.9       34.9    
  20    39.0       39.0       39.0       39.0     -1000.     -1000.     -1000.     -1000.       35.6       35.5       35.4    
        35.3       35.1       34.9       34.7       34.6       34.7       34.8       34.9       34.9    
  21    38.7       38.7       38.7       38.6     -1000.     -1000.     -1000.     -1000.       35.6       35.5       35.4    
        35.3       35.1       34.8       34.5       34.5       34.7       34.8       34.9       34.9    
  22    38.4       38.4       38.3       38.2     -1000.     -1000.       35.9       35.8       35.7       35.5       35.4    
        35.2       35.1       34.9       34.7       34.6       34.7       34.8       34.9       34.9    
  23    38.1       38.0       37.9       37.8       37.5     -1000.       36.0       35.9       35.7       35.5       35.4    
        35.2       35.1       34.9       34.7       34.6       34.7       34.8       34.9       34.9    
  24    37.8       37.7       37.6       37.4       37.1       36.6       36.2       35.9       35.7       35.5       35.3    
        35.2       35.1       34.9       34.8       34.6       34.7       34.8       34.8       34.9    
  25    37.5       37.4       37.3       37.1       36.8       36.4       36.1       35.9       35.7       35.4       35.3    
        35.1       35.0       34.9       34.8       34.6       34.7       34.8       34.8       34.9    
  26    37.2       37.2       37.1       36.8       36.6       36.3       36.1       35.8       35.6       35.3       35.1    
        35.0       35.0       34.9       34.7       34.6       34.7       34.8       34.8       34.8    
  27    37.0       36.9       36.8       36.6       36.4       36.2       35.9       35.7       35.5       35.2       34.8    
        34.9       34.9       34.8       34.7       34.5       34.7       34.7       34.8       34.8    
  28    36.8       36.7       36.6       36.4       36.2       36.0       35.7       35.5       35.4       35.2       35.0    
        34.9       34.9       34.8       34.7       34.5       34.6       34.7       34.8       34.8    
  29    36.6       36.5       36.4       36.2       36.0       35.7       35.5       35.4       35.3       35.1       35.0    
        34.9       34.8       34.7       34.6       34.5       34.6       34.7       34.7       34.8    
  30    36.4       36.3       36.2       36.0       35.8       35.5       35.1       35.2       35.1       35.0       34.9    
        34.8       34.8       34.7       34.6       34.5       34.6       34.6       34.7       34.7    
  31    36.3       36.2       36.0       35.9       35.7       35.4       35.2       35.1       35.0       34.9       34.8    
        34.8       34.7       34.6       34.5       34.4       34.5       34.6       34.7       34.7    
  32    36.2       36.0       35.9       35.7       35.5       35.3       35.1       35.0       34.9       34.8       34.7    
        34.6       34.6       34.5       34.5       34.4       34.5       34.6       34.6       34.6    
  33  -1000.       35.9       35.7       35.5       35.4       35.2       35.0       34.9       34.8       34.6       34.6    
        34.5       34.4       34.4       34.4       34.3       34.4       34.5       34.6       34.6    
  34  -1000.     -1000.       35.6       35.3       35.2       35.0       34.8       34.7       34.6       34.5       34.4    
        34.2       34.2       34.2       34.2       34.3       34.4       34.5       34.5       34.5    
  35  -1000.     -1000.     -1000.       35.1       34.9       34.7       34.6       34.5       34.3       34.2       34.1    
        34.0       33.8       34.0       34.1       34.2       34.3       34.4       34.5       34.5    
  36  -1000.     -1000.     -1000.     -1000.       34.6       34.4       34.3       34.2       34.1       34.0       33.9    
        33.8       33.8       33.9       34.0       34.1       34.2       34.3       34.4     -1000.    
  37  -1000.     -1000.     -1000.     -1000.       34.4       34.1       33.9       33.8       33.8       33.7       33.6    
        33.6       33.6       33.7       33.8       34.0       34.1       34.2       34.3     -1000.    
  38  -1000.     -1000.     -1000.     -1000.     -1000.       33.6       33.5       33.4       33.4       33.4       33.3    
        33.3       33.4       33.5       33.6       33.9       34.0       34.2     -1000.     -1000.    
  39  -1000.     -1000.     -1000.     -1000.     -1000.       33.1       33.1       33.0       33.0       33.0       33.0    
        33.0       33.0       33.1       33.3       33.8       33.9     -1000.     -1000.     -1000.    
  40  -1000.     -1000.     -1000.     -1000.     -1000.       32.5       32.5       32.5       32.5       32.5       32.5    
        32.5       32.5       32.5       32.5     -1000.     -1000.     -1000.     -1000.     -1000.    

     INITIAL HEAD FOR LAYER 3

               1          2          3          4          5          6          7          8          9         10         11
              12         13         14         15         16         17         18         19         20
 .............................................................................................................................
   1    39.4       39.4       39.2       39.0       38.8       38.5       38.2       37.9       37.6       37.2       36.9    
        36.6       36.2       35.9       35.5       35.1       35.2       35.3       35.3       35.3    
   2    39.4       39.4       39.2       39.0       38.8       38.5       38.2       37.9       37.6       37.2       36.9    
        36.6       36.2       35.9       35.5       35.1       35.2       35.3       35.3       35.3    
   3    39.5       39.4       39.2       39.0       38.8       38.5       38.2       37.9       37.5       37.2       36.8    
        36.5       36.2       35.8       35.5       35.1       35.2       35.2       35.3       35.3    
   4    39.5       39.4       39.3       39.0       38.8       38.5       38.2       37.8       37.5       37.1       36.8    
        36.4       36.1       35.8       35.4       35.1       35.2       35.2       35.3       35.3    
   5    39.6       39.5       39.3       39.1       38.8       38.5       38.2       37.8       37.4       37.0       36.7    
        36.4       36.1       35.7       35.4       35.1       35.1       35.2       35.2       35.3    
   6    39.6       39.6       39.4       39.2       38.9       38.5       38.1       37.7       37.3       36.9       36.6    
        36.3       36.0       35.7       35.4       35.0       35.1       35.1       35.2       35.2    
   7    39.7       39.6       39.5       39.2       38.9       38.5       38.1       37.6       37.2       36.8       36.5    
        36.2       35.9       35.6       35.3       35.0       35.0       35.1       35.1       35.2    
   8    39.8       39.7       39.6       39.4       39.0       38.5       38.1       37.5       37.0       36.6       36.3    
        36.1       35.8       35.5       35.2       34.9       34.9       35.0       35.1       35.1    
   9    39.9       39.9       39.8       39.7     -1000.     -1000.     -1000.       37.1       36.7       36.4       36.2    
        35.9       35.7       35.4       35.1       34.8       34.8       34.9       35.0       35.0    
  10    40.0       40.0       40.0       39.9     -1000.     -1000.     -1000.     -1000.       36.3       36.2       36.0    
        35.8       35.5       35.3       35.0       34.7       34.5       34.8       34.9       35.0    
  11    40.1       40.1       40.1       40.1     -1000.     -1000.     -1000.     -1000.       36.1       36.0       35.8    
        35.6       35.4       35.1       34.9       34.7       34.7       34.8       34.9       35.0    
  12    40.1       40.1       40.1       40.1     -1000.     -1000.     -1000.     -1000.       35.9       35.9       35.7    
        35.5       35.3       34.8       34.8       34.7       34.8       34.9       34.9       35.0    
  13    40.1       40.1       40.1       40.1     -1000.     -1000.     -1000.     -1000.       35.8       35.8       35.6    
        35.5       35.3       35.0       34.9       34.7       34.8       34.9       34.9       35.0    
  14    40.1       40.1       40.1       40.1     -1000.     -1000.     -1000.     -1000.       35.7       35.7       35.6    
        35.4       35.3       35.1       34.9       34.7       34.8       34.9       35.0       35.0    
  15    40.0       40.0       40.0       40.0     -1000.     -1000.     -1000.     -1000.       35.7       35.6       35.5    
        35.4       35.3       35.1       34.9       34.7       34.8       34.9       35.0       35.0    
  16    39.9       39.9       39.8       39.8     -1000.     -1000.     -1000.     -1000.       35.6       35.6       35.5    
        35.4       35.2       35.1       34.9       34.7       34.8       34.9       35.0       35.0    
  17    39.7       39.7       39.7       39.7     -1000.     -1000.     -1000.     -1000.       35.6       35.5       35.5    
        35.4       35.2       35.1       34.9       34.7       34.8       34.9       34.9       35.0    
  18    39.5       39.5       39.5       39.5     -1000.     -1000.     -1000.     -1000.       35.6       35.5       35.4    
        35.3       35.2       35.0       34.9       34.7       34.8       34.9       34.9       35.0    
  19    39.3       39.3       39.2       39.2     -1000.     -1000.     -1000.     -1000.       35.6       35.5       35.4    
        35.3       35.2       35.0       34.8       34.7       34.8       34.9       34.9       34.9    
  20    39.0       39.0       39.0       39.0     -1000.     -1000.     -1000.     -1000.       35.6       35.5       35.4    
        35.3       35.1       34.9       34.7       34.6       34.7       34.8       34.9       34.9    
  21    38.7       38.7       38.7       38.6     -1000.     -1000.     -1000.     -1000.       35.6       35.5       35.4    
        35.3       35.1       34.8       34.5       34.5       34.7       34.8       34.9       34.9    
  22    38.4       38.4       38.3       38.2     -1000.     -1000.       35.9       35.8       35.7       35.5       35.4    
        35.2       35.1       34.9       34.7       34.6       34.7       34.8       34.9       34.9    
  23    38.1       38.0       37.9       37.8       37.5     -1000.       36.0       35.9       35.7       35.5       35.4    
        35.2       35.1       34.9       34.7       34.6       34.7       34.8       34.8       34.9    
  24    37.8       37.7       37.6       37.4       37.1       36.6       36.2       35.9       35.7       35.5       35.3    
        35.2       35.1       34.9       34.8       34.6       34.7       34.8       34.8       34.9    
  25    37.5       37.4       37.3       37.1       36.8       36.4       36.1       35.9       35.7       35.4       35.3    
        35.1       35.0       34.9       34.8       34.6       34.7       34.8       34.8       34.9    
  26    37.2       37.2       37.1       36.8       36.6       36.3       36.1       35.8       35.6       35.3       35.1    
        35.0       35.0       34.9       34.7       34.6       34.7       34.8       34.8       34.8    
  27    37.0       36.9       36.8       36.6       36.4       36.2       35.9       35.7       35.5       35.2       34.8    
        34.9       34.9       34.8       34.7       34.6       34.7       34.7       34.8       34.8    
  28    36.8       36.7       36.6       36.4       36.2       36.0       35.7       35.5       35.4       35.2       35.0    
        34.9       34.9       34.8       34.7       34.5       34.6       34.7       34.8       34.8    
  29    36.6       36.5       36.4       36.2       36.0       35.7       35.5       35.4       35.3       35.1       35.0    
        34.9       34.8       34.7       34.6       34.5       34.6       34.7       34.7       34.8    
  30    36.4       36.3       36.2       36.0       35.8       35.5       35.1       35.2       35.1       35.0       34.9    
        34.8       34.8       34.7       34.6       34.5       34.6       34.6       34.7       34.7    
  31    36.3       36.2       36.0       35.9       35.6       35.4       35.2       35.1       35.0       34.9       34.8    
        34.8       34.7       34.6       34.5       34.4       34.5       34.6       34.7       34.7    
  32    36.2       36.0       35.9       35.7       35.5       35.3       35.1       35.0       34.9       34.8       34.7    
        34.6       34.6       34.5       34.5       34.4       34.5       34.6       34.6       34.6    
  33  -1000.       35.9       35.7       35.5       35.4       35.2       35.0       34.9       34.8       34.6       34.5    
        34.5       34.4       34.4       34.4       34.3       34.4       34.5       34.6       34.6    
  34  -1000.     -1000.       35.6       35.3       35.2       35.0       34.8       34.7       34.6       34.5       34.3    
        34.2       34.1       34.2       34.2       34.3       34.4       34.4       34.5       34.5    
  35  -1000.     -1000.     -1000.       35.1       34.9       34.7       34.6       34.5       34.3       34.2       34.1    
        34.0       33.7       34.0       34.1       34.2       34.3       34.4       34.5       34.5    
  36  -1000.     -1000.     -1000.     -1000.       34.6       34.4       34.3       34.2       34.1       34.0       33.9    
        33.8       33.8       33.9       34.0       34.1       34.2       34.3       34.4     -1000.    
  37  -1000.     -1000.     -1000.     -1000.       34.4       34.1       33.9       33.8       33.8       33.7       33.6    
        33.6       33.6       33.7       33.8       34.0       34.1       34.2       34.3     -1000.    
  38  -1000.     -1000.     -1000.     -1000.     -1000.       33.6       33.5       33.4       33.4       33.4       33.3    
        33.3       33.4       33.5       33.6       33.9       34.0       34.1     -1000.     -1000.    
  39  -1000.     -1000.     -1000.     -1000.     -1000.       33.1       33.1       33.0       33.0       33.0       33.0    
        33.0       33.0       33.1       33.3       33.8       33.9     -1000.     -1000.     -1000.    
  40  -1000.     -1000.     -1000.     -1000.     -1000.       32.6       32.6       32.6       32.6       32.6       32.6    
        32.6       32.6       32.6       32.6     -1000.     -1000.     -1000.     -1000.     -1000.    
 END PROCESSING GRIDDATA
 PROCESSING GRIDDATA

                ICELLTYPE = 1 FOR LAYER 1

                ICELLTYPE = 0 FOR LAYER 2

                ICELLTYPE = 0 FOR LAYER 3

 OPENED npf_k_0.dat
 FILE TYPE:OPEN/CLOSE   UNIT 1017   STATUS:OLD                 
 FORMAT:FORMATTED              ACCESS:SEQUENTIAL          
 ACTION:READ                


 OPENED npf_k_1.dat
 FILE TYPE:OPEN/CLOSE   UNIT 1018   STATUS:OLD                 
 FORMAT:FORMATTED              ACCESS:SEQUENTIAL          
 ACTION:READ                


 OPENED npf_k_2.dat
 FILE TYPE:OPEN/CLOSE   UNIT 1019   STATUS:OLD                 
 FORMAT:FORMATTED              ACCESS:SEQUENTIAL          
 ACTION:READ                


 OPENED npf_k33_0.dat
 FILE TYPE:OPEN/CLOSE   UNIT 1020   STATUS:OLD                 
 FORMAT:FORMATTED              ACCESS:SEQUENTIAL          
 ACTION:READ                


 OPENED npf_k33_1.dat
 FILE TYPE:OPEN/CLOSE   UNIT 1021   STATUS:OLD                 
 FORMAT:FORMATTED              ACCESS:SEQUENTIAL          
 ACTION:READ                


 OPENED npf_k33_2.dat
 FILE TYPE:OPEN/CLOSE   UNIT 1022   STATUS:OLD                 
 FORMAT:FORMATTED              ACCESS:SEQUENTIAL          
 ACTION:READ                

 K22 not provided.  Assuming K22 = K.
 END PROCESSING GRIDDATA

 STO -- STORAGE PACKAGE, VERSION 1, 5/19/2014 INPUT READ FROM UNIT 1008


 PROCESSING STORAGE OPTIONS
 END OF STORAGE OPTIONS
 PROCESSING GRIDDATA

                 ICONVERT = 1 FOR LAYER 1

                 ICONVERT = 0 FOR LAYER 2

                 ICONVERT = 0 FOR LAYER 3

 OPENED sto_ss_0.dat
 FILE TYPE:OPEN/CLOSE   UNIT 1023   STATUS:OLD                 
 FORMAT:FORMATTED              ACCESS:SEQUENTIAL          
 ACTION:READ                


 OPENED sto_ss_1.dat
 FILE TYPE:OPEN/CLOSE   UNIT 1024   STATUS:OLD                 
 FORMAT:FORMATTED              ACCESS:SEQUENTIAL          
 ACTION:READ                


 OPENED sto_ss_2.dat
 FILE TYPE:OPEN/CLOSE   UNIT 1025   STATUS:OLD                 
 FORMAT:FORMATTED              ACCESS:SEQUENTIAL          
 ACTION:READ                


 OPENED sto_sy_0.dat
 FILE TYPE:OPEN/CLOSE   UNIT 1026   STATUS:OLD                 
 FORMAT:FORMATTED              ACCESS:SEQUENTIAL          
 ACTION:READ                


 OPENED sto_sy_1.dat
 FILE TYPE:OPEN/CLOSE   UNIT 1027   STATUS:OLD                 
 FORMAT:FORMATTED              ACCESS:SEQUENTIAL          
 ACTION:READ                


 OPENED sto_sy_2.dat
 FILE TYPE:OPEN/CLOSE   UNIT 1028   STATUS:OLD                 
 FORMAT:FORMATTED              ACCESS:SEQUENTIAL          
 ACTION:READ                

 END PROCESSING GRIDDATA

The observation utility is active for "FREYBERG6"
No options block found in OBS input. Defaults will be used.

    BINARY GRID INFORMATION WILL BE WRITTEN TO:
      UNIT NUMBER: 1030
      FILE NAME: /Users/JWhite/Dev/pestpp/pestpp-da_benchmarks/mf6_freyberg/template/freyberg6.dis.grb

 OPENED /Users/JWhite/Dev/pestpp/pestpp-da_benchmarks/mf6_freyberg/template/freyberg6.dis.grb
 FILE TYPE:DATA(BINARY)   UNIT 1030   STATUS:REPLACE             
 FORMAT:UNFORMATTED            ACCESS:STREAM              
 ACTION:READWRITE           

      THE LAST TIME STEP WILL BE PRINTED
      THE LAST TIME STEP WILL BE PRINTED

 PROCESSING OC OPTIONS

    BUDGET INFORMATION WILL BE WRITTEN TO:
      UNIT NUMBER: 1031
      FILE NAME: freyberg6_freyberg.cbc

 OPENED freyberg6_freyberg.cbc
 FILE TYPE:DATA(BINARY)   UNIT 1031   STATUS:REPLACE             
 FORMAT:UNFORMATTED            ACCESS:STREAM              
 ACTION:READWRITE           

    HEAD INFORMATION WILL BE WRITTEN TO:
      UNIT NUMBER: 1032
      FILE NAME: freyberg6_freyberg.hds

 OPENED freyberg6_freyberg.hds
 FILE TYPE:DATA(BINARY)   UNIT 1032   STATUS:REPLACE             
 FORMAT:UNFORMATTED            ACCESS:STREAM              
 ACTION:READWRITE           

 END OF OC OPTIONS

The observation utility is active for "SFR_1"
No options block found in OBS input. Defaults will be used.


 SFR PACKAGE (SFR_1) STATIC REACH DATA
 ---------------------------------------------------------------------------------------------------------------------------------------
                                                                                                                              UPSTREAM  
   NUMBER   CELLID                  LENGTH       WIDTH        SLOPE         TOP       THICKNESS        HK       ROUGHNESS     FRACTION  
 ---------------------------------------------------------------------------------------------------------------------------------------
     1      (1,1,16)              250.00       5.0000       5.00000E-05  34.000       1.0000       0.10000      3.00000E-02  1.0000     
     2      (1,2,16)              250.00       5.0000       5.00000E-05  33.987       1.0000       0.10000      3.00000E-02  1.0000     
     3      (1,3,16)              250.00       5.0000       5.00000E-05  33.974       1.0000       0.10000      3.00000E-02  1.0000     
     4      (1,4,16)              250.00       5.0000       5.00000E-05  33.962       1.0000       0.10000      3.00000E-02  1.0000     
     5      (1,5,16)              250.00       5.0000       5.00000E-05  33.949       1.0000       0.10000      3.00000E-02  1.0000     
     6      (1,6,16)              250.00       5.0000       5.00000E-05  33.936       1.0000       0.10000      3.00000E-02  1.0000     
     7      (1,7,16)              250.00       5.0000       5.00000E-05  33.923       1.0000       0.10000      3.00000E-02  1.0000     
     8      (1,8,16)              250.00       5.0000       5.00000E-05  33.910       1.0000       0.10000      3.00000E-02  1.0000     
     9      (1,9,16)              250.00       5.0000       5.00000E-05  33.897       1.0000       0.10000      3.00000E-02  1.0000     
     10     (1,10,16)             250.00       5.0000       5.00000E-05  33.885       1.0000       0.10000      3.00000E-02  1.0000     
     11     (1,11,16)             250.00       5.0000       5.00000E-05  33.872       1.0000       0.10000      3.00000E-02  1.0000     
     12     (1,12,16)             250.00       5.0000       5.00000E-05  33.859       1.0000       0.10000      3.00000E-02  1.0000     
     13     (1,13,16)             250.00       5.0000       5.00000E-05  33.846       1.0000       0.10000      3.00000E-02  1.0000     
     14     (1,14,16)             250.00       5.0000       5.00000E-05  33.833       1.0000       0.10000      3.00000E-02  1.0000     
     15     (1,15,16)             250.00       5.0000       5.00000E-05  33.821       1.0000       0.10000      3.00000E-02  1.0000     
     16     (1,16,16)             250.00       5.0000       5.00000E-05  33.808       1.0000       0.10000      3.00000E-02  1.0000     
     17     (1,17,16)             250.00       5.0000       5.00000E-05  33.795       1.0000       0.10000      3.00000E-02  1.0000     
     18     (1,18,16)             250.00       5.0000       5.00000E-05  33.782       1.0000       0.10000      3.00000E-02  1.0000     
     19     (1,19,16)             250.00       5.0000       5.00000E-05  33.769       1.0000       0.10000      3.00000E-02  1.0000     
     20     (1,20,16)             250.00       5.0000       5.00000E-05  33.756       1.0000       0.10000      3.00000E-02  1.0000     
     21     (1,21,16)             250.00       5.0000       5.00000E-05  33.744       1.0000       0.10000      3.00000E-02  1.0000     
     22     (1,22,16)             250.00       5.0000       5.00000E-05  33.731       1.0000       0.10000      3.00000E-02  1.0000     
     23     (1,23,16)             250.00       5.0000       5.00000E-05  33.718       1.0000       0.10000      3.00000E-02  1.0000     
     24     (1,24,16)             250.00       5.0000       5.00000E-05  33.705       1.0000       0.10000      3.00000E-02  1.0000     
     25     (1,25,16)             250.00       5.0000       5.00000E-05  33.692       1.0000       0.10000      3.00000E-02  1.0000     
     26     (1,26,16)             250.00       5.0000       5.00000E-05  33.679       1.0000       0.10000      3.00000E-02  1.0000     
     27     (1,27,16)             250.00       5.0000       5.00000E-05  33.667       1.0000       0.10000      3.00000E-02  1.0000     
     28     (1,28,16)             250.00       5.0000       5.00000E-05  33.654       1.0000       0.10000      3.00000E-02  1.0000     
     29     (1,29,16)             250.00       5.0000       5.00000E-05  33.641       1.0000       0.10000      3.00000E-02  1.0000     
     30     (1,30,16)             250.00       5.0000       5.00000E-05  33.628       1.0000       0.10000      3.00000E-02  1.0000     
     31     (1,31,16)             250.00       5.0000       5.00000E-05  33.615       1.0000       0.10000      3.00000E-02  1.0000     
     32     (1,32,16)             250.00       5.0000       5.00000E-05  33.603       1.0000       0.10000      3.00000E-02  1.0000     
     33     (1,33,16)             250.00       5.0000       5.00000E-05  33.590       1.0000       0.10000      3.00000E-02  1.0000     
     34     (1,34,16)             250.00       5.0000       5.00000E-05  33.577       1.0000       0.10000      3.00000E-02  1.0000     
     35     (1,35,16)             250.00       5.0000       5.00000E-05  33.564       1.0000       0.10000      3.00000E-02  1.0000     
     36     (1,36,16)             250.00       5.0000       5.00000E-05  33.551       1.0000       0.10000      3.00000E-02  1.0000     
     37     (1,37,16)             250.00       5.0000       5.00000E-05  33.538       1.0000       0.10000      3.00000E-02  1.0000     
     38     (1,38,16)             250.00       5.0000       5.00000E-05  33.526       1.0000       0.10000      3.00000E-02  1.0000     
     39     (1,39,16)             250.00       5.0000       5.00000E-05  33.513       1.0000       0.10000      3.00000E-02  1.0000     
     40     (1,40,16)             250.00       5.0000       5.00000E-05  33.510       1.0000       0.10000      3.00000E-02  1.0000     
 ---------------------------------------------------------------------------------------------------------------------------------------



 SFR PACKAGE (SFR_1) STATIC REACH CONNECTION DATA
 --------------------------------
   REACH      CONN 1     CONN 2  
 --------------------------------
     1          2                
     2          1          3     
     3          2          4     
     4          3          5     
     5          4          6     
     6          5          7     
     7          6          8     
     8          7          9     
     9          8          10    
     10         9          11    
     11         10         12    
     12         11         13    
     13         12         14    
     14         13         15    
     15         14         16    
     16         15         17    
     17         16         18    
     18         17         19    
     19         18         20    
     20         19         21    
     21         20         22    
     22         21         23    
     23         22         24    
     24         23         25    
     25         24         26    
     26         25         27    
     27         26         28    
     28         27         29    
     29         28         30    
     30         29         31    
     31         30         32    
     32         31         33    
     33         32         34    
     34         33         35    
     35         34         36    
     36         35         37    
     37         36         38    
     38         37         39    
     39         38         40    
     40         39               
 --------------------------------



 SFR PACKAGE (SFR_1) STATIC UPSTREAM REACH CONNECTION DATA
 ---------------------
             UPSTREAM 
   REACH      CONN 1  
 ---------------------
     1                
     2          1     
     3          2     
     4          3     
     5          4     
     6          5     
     7          6     
     8          7     
     9          8     
     10         9     
     11         10    
     12         11    
     13         12    
     14         13    
     15         14    
     16         15    
     17         16    
     18         17    
     19         18    
     20         19    
     21         20    
     22         21    
     23         22    
     24         23    
     25         24    
     26         25    
     27         26    
     28         27    
     29         28    
     30         29    
     31         30    
     32         31    
     33         32    
     34         33    
     35         34    
     36         35    
     37         36    
     38         37    
     39         38    
     40         39    
 ---------------------



 SFR PACKAGE (SFR_1) STATIC DOWNSTREAM REACH CONNECTION DATA
 ---------------------
            DOWNSTREAM
   REACH      CONN 1  
 ---------------------
     1          2     
     2          3     
     3          4     
     4          5     
     5          6     
     6          7     
     7          8     
     8          9     
     9          10    
     10         11    
     11         12    
     12         13    
     13         14    
     14         15    
     15         16    
     16         17    
     17         18    
     18         19    
     19         20    
     20         21    
     21         22    
     22         23    
     23         24    
     24         25    
     25         26    
     26         27    
     27         28    
     28         29    
     29         30    
     30         31    
     31         32    
     32         33    
     33         34    
     34         35    
     35         36    
     36         37    
     37         38    
     38         39    
     39         40    
     40               
 ---------------------



start timestep kper="1" kstp="1" mode="normal"


 BEGIN READING OUTPUT CONTROL FOR STRESS PERIOD 1
      ALL TIME STEPS WILL BE SAVED
      ALL TIME STEPS WILL BE SAVED
      ALL TIME STEPS WILL BE PRINTED

 END READING OUTPUT CONTROL FOR STRESS PERIOD 1


 PROCESSING STORAGE PERIOD DATA
 END PROCESSING STORAGE PERIOD DATA


 STRESS PERIOD 1 IS STEADY-STATE

 ---------------------------------------------------
  WEL NO.    LAYER    ROW     COL     STRESS RATE   
 ---------------------------------------------------
     1         3      10      17    -157.500000     
[...]
                 GHB =           0.0000                   GHB =           0.0000     GHB-1           
                 RCH =     1796991.0751                   RCH =        2558.2221     RCH-1           
                 SFR =           0.0000                   SFR =           0.0000     SFR_1           

            TOTAL IN =     2228877.3461              TOTAL IN =        2567.3955

          OUT:                                     OUT:
          ----                                     ----
              STO-SS =        2180.7492                STO-SS =           2.9774     STORAGE         
              STO-SY =      338880.9059                STO-SY =         455.3372     STORAGE         
                 WEL =      675409.3238                   WEL =        1084.6279     WEL-1           
                 GHB =      311329.9841                   GHB =         299.7889     GHB-1           
                 RCH =           0.0000                   RCH =           0.0000     RCH-1           
                 SFR =      902204.3931                   SFR =         719.5916     SFR_1           

           TOTAL OUT =     2230005.3561             TOTAL OUT =        2562.3229

            IN - OUT =       -1128.0100              IN - OUT =           5.0726

 PERCENT DISCREPANCY =          -0.05     PERCENT DISCREPANCY =           0.20




         TIME SUMMARY AT END OF TIME STEP    1 IN STRESS PERIOD   23
                    SECONDS     MINUTES      HOURS       DAYS        YEARS
                    -----------------------------------------------------------
   TIME STEP LENGTH 2.67840E+06  44640.      744.00      31.000     8.48734E-02
 STRESS PERIOD TIME 2.67840E+06  44640.      744.00      31.000     8.48734E-02
         TOTAL TIME 5.79744E+07 9.66240E+05  16104.      671.00      1.8371    


end timestep


start timestep kper="24" kstp="1" mode="normal"


 OUTPUT CONTROL FOR STRESS PERIOD 24 IS REPEATED USING SETTINGS FROM A PREVIOUS STRESS PERIOD.


 STRESS PERIOD 24 IS TRANSIENT

 ---------------------------------------------------
  WEL NO.    LAYER    ROW     COL     STRESS RATE   
 ---------------------------------------------------
     1         3      10      17    -125.583552     
     2         3      12      14    -125.583552     
     3         3      21      15    -125.583552     
     4         3      27      11    -125.583552     
     5         3      30       7    -125.583552     
     6         3      35      13    -125.583552     
 ---------------------------------------------------



 REUSING GHBS FROM LAST STRESS PERIOD

                 RECHARGE =  0.7926212E-04

 SFR PACKAGE (SFR_1) DATA FOR PERIOD     24
 ---------------------------------------------------------------
   NUMBER   KEYWORD                  VALUE 1         VALUE 2    
 ---------------------------------------------------------------
     1      INFLOW               128.48538208007                
 ---------------------------------------------------------------


 UBDSV1 SAVING     FLOW-JA-FACE ON UNIT   1031 AT TIME STEP      1, STRESS PERIOD     24
 UBDSV06 SAVING              WEL IN MODEL FREYBERG6        PACKAGE FREYBERG6       CONNECTED TO MODEL FREYBERG6        PACKAGE WEL-1            ON UNIT   1031 AT TIME STEP      1, STRESS PERIOD     24

 WEL PACKAGE (WEL-1) FLOW RATES   PERIOD     24   STEP        1
 -----------------------------------------------
   NUMBER   CELLID                    RATE      
 -----------------------------------------------
     1      (3,10,17)            -125.58355     
     2      (3,12,14)            -125.58355     
     3      (3,21,15)            -125.58355     
     4      (3,27,11)            -125.58355     
     5      (3,30,7)             -125.58355     
     6      (3,35,13)            -125.58355     
 -----------------------------------------------



 UBDSV06 SAVING              GHB IN MODEL FREYBERG6        PACKAGE FREYBERG6       CONNECTED TO MODEL FREYBERG6        PACKAGE GHB-1            ON UNIT   1031 AT TIME STEP      1, STRESS PERIOD     24

 GHB PACKAGE (GHB-1) FLOW RATES   PERIOD     24   STEP        1
 -----------------------------------------------
   NUMBER   CELLID                    RATE      
 -----------------------------------------------
     1      (1,40,6)             -13.227889     
     2      (1,40,7)             -13.088373     
     3      (1,40,8)             -12.857097     
     4      (1,40,9)             -12.586710     
     5      (1,40,10)            -12.321940     
     6      (1,40,11)            -12.087742     
     7      (1,40,12)            -11.911366     
     8      (1,40,13)            -11.830091     
     9      (1,40,14)            -11.911670     
     10     (1,40,15)            -12.262692     
     11     (2,40,6)             -13.669881     
     12     (2,40,7)             -13.523686     
     13     (2,40,8)             -13.281328     
     14     (2,40,9)             -12.998076     
     15     (2,40,10)            -12.720902     
     16     (2,40,11)            -12.475820     
     17     (2,40,12)            -12.291252     
     18     (2,40,13)            -12.206141     
     19     (2,40,14)            -12.291843     
     20     (2,40,15)            -12.659727     
     21     (3,40,6)             -14.830293     
     22     (3,40,7)             -14.670846     
     23     (3,40,8)             -14.405744     
     24     (3,40,9)             -14.095805     
     25     (3,40,10)            -13.794772     
     26     (3,40,11)            -13.528858     
     27     (3,40,12)            -13.329147     
     28     (3,40,13)            -13.235652     
     29     (3,40,14)            -13.330009     
     30     (3,40,15)            -13.734333     
 -----------------------------------------------



 UBDSV06 SAVING              RCH IN MODEL FREYBERG6        PACKAGE FREYBERG6       CONNECTED TO MODEL FREYBERG6        PACKAGE RCH-1            ON UNIT   1031 AT TIME STEP      1, STRESS PERIOD     24
 UBDSV06 SAVING              SFR IN MODEL FREYBERG6        PACKAGE FREYBERG6       CONNECTED TO MODEL FREYBERG6        PACKAGE SFR_1            ON UNIT   1031 AT TIME STEP      1, STRESS PERIOD     24

 HEAD WILL BE SAVED ON UNIT 1032 AT END OF TIME STEP    1, STRESS PERIOD   24


  SFR_1 BUDGET FOR ENTIRE MODEL AT END OF TIME STEP    1, STRESS PERIOD  24
  ------------------------------------------------------------------------------

     CUMULATIVE SFR_1      L**3       RATES FOR THIS TIME STEP      L**3/T
     ------------------                 ------------------------

           IN:                                      IN:
           ---                                      ---
                 GWF =      933625.6535                   GWF =        1016.9589
            RAINFALL =           0.0000              RAINFALL =           0.0000
         EVAPORATION =           0.0000           EVAPORATION =           0.0000
              RUNOFF =           0.0000                RUNOFF =           0.0000
          EXT-INFLOW =       69870.5673            EXT-INFLOW =         128.4854
         EXT-OUTFLOW =           0.0000           EXT-OUTFLOW =           0.0000
             STORAGE =           0.0000               STORAGE =           0.0000

            TOTAL IN =     1003496.2209              TOTAL IN =        1145.4443

          OUT:                                     OUT:
          ----                                     ----
                 GWF =           0.0000                   GWF =           0.0000
            RAINFALL =           0.0000              RAINFALL =           0.0000
         EVAPORATION =           0.0000           EVAPORATION =           0.0000
              RUNOFF =           0.0000                RUNOFF =           0.0000
          EXT-INFLOW =           0.0000            EXT-INFLOW =           0.0000
         EXT-OUTFLOW =     1003496.2209           EXT-OUTFLOW =        1145.4443
             STORAGE =           0.0000               STORAGE =           0.0000

           TOTAL OUT =     1003496.2209             TOTAL OUT =        1145.4443

            IN - OUT =       2.3283E-10              IN - OUT =      -2.2737E-13

 PERCENT DISCREPANCY =           0.00     PERCENT DISCREPANCY =          -0.00



  VOLUME BUDGET FOR ENTIRE MODEL AT END OF TIME STEP    1, STRESS PERIOD  24
  ---------------------------------------------------------------------------------------------------

     CUMULATIVE VOLUME      L**3       RATES FOR THIS TIME STEP      L**3/T          PACKAGE NAME    
     ------------------                 ------------------------                     ----------------

           IN:                                      IN:
           ---                                      ---
              STO-SS =        2756.7838                STO-SS =           0.0000     STORAGE         
              STO-SY =      429129.4872                STO-SY =           0.0000     STORAGE         
                 WEL =           0.0000                   WEL =           0.0000     WEL-1           
                 GHB =           0.0000                   GHB =           0.0000     GHB-1           
                 RCH =     1901914.3018                   RCH =        3497.4409     RCH-1           
                 SFR =           0.0000                   SFR =           0.0000     SFR_1           

            TOTAL IN =     2333800.5728              TOTAL IN =        3497.4409

          OUT:                                     OUT:
          ----                                     ----
              STO-SS =        2433.5999                STO-SS =           8.4284     STORAGE         
              STO-SY =      378144.0751                STO-SY =        1308.7723     STORAGE         
                 WEL =      698014.3632                   WEL =         753.5013     WEL-1           
                 GHB =      323064.7746                   GHB =         391.1597     GHB-1           
                 RCH =           0.0000                   RCH =           0.0000     RCH-1           
                 SFR =      933143.6989                   SFR =        1031.3102     SFR_1           

           TOTAL OUT =     2334800.5118             TOTAL OUT =        3493.1719

            IN - OUT =        -999.9390              IN - OUT =           4.2690

 PERCENT DISCREPANCY =          -0.04     PERCENT DISCREPANCY =           0.12




         TIME SUMMARY AT END OF TIME STEP    1 IN STRESS PERIOD   24
                    SECONDS     MINUTES      HOURS       DAYS        YEARS
                    -----------------------------------------------------------
   TIME STEP LENGTH 2.59200E+06  43200.      720.00      30.000     8.21355E-02
 STRESS PERIOD TIME 2.59200E+06  43200.      720.00      30.000     8.21355E-02
         TOTAL TIME 6.05664E+07 1.00944E+06  16824.      701.00      1.9192    


end timestep


start timestep kper="25" kstp="1" mode="normal"


 OUTPUT CONTROL FOR STRESS PERIOD 25 IS REPEATED USING SETTINGS FROM A PREVIOUS STRESS PERIOD.


 STRESS PERIOD 25 IS TRANSIENT

 ---------------------------------------------------
  WEL NO.    LAYER    ROW     COL     STRESS RATE   
 ---------------------------------------------------
     1         3      10      17    -79.6886235     
     2         3      12      14    -79.6886235     
     3         3      21      15    -79.6886235     
     4         3      27      11    -79.6886235     
     5         3      30       7    -79.6886235     
     6         3      35      13    -79.6886235     
 ---------------------------------------------------



 REUSING GHBS FROM LAST STRESS PERIOD

                 RECHARGE =  0.9543111E-04

 SFR PACKAGE (SFR_1) DATA FOR PERIOD     25
 ---------------------------------------------------------------
   NUMBER   KEYWORD                  VALUE 1         VALUE 2    
 ---------------------------------------------------------------
     1      INFLOW               154.69561767578                
 ---------------------------------------------------------------


 UBDSV1 SAVING     FLOW-JA-FACE ON UNIT   1031 AT TIME STEP      1, STRESS PERIOD     25
 UBDSV06 SAVING              WEL IN MODEL FREYBERG6        PACKAGE FREYBERG6       CONNECTED TO MODEL FREYBERG6        PACKAGE WEL-1            ON UNIT   1031 AT TIME STEP      1, STRESS PERIOD     25

 WEL PACKAGE (WEL-1) FLOW RATES   PERIOD     25   STEP        1
 -----------------------------------------------
   NUMBER   CELLID                    RATE      
 -----------------------------------------------
     1      (3,10,17)            -79.688624     
     2      (3,12,14)            -79.688624     
     3      (3,21,15)            -79.688624     
     4      (3,27,11)            -79.688624     
     5      (3,30,7)             -79.688624     
     6      (3,35,13)            -79.688624     
 -----------------------------------------------



 UBDSV06 SAVING              GHB IN MODEL FREYBERG6        PACKAGE FREYBERG6       CONNECTED TO MODEL FREYBERG6        PACKAGE GHB-1            ON UNIT   1031 AT TIME STEP      1, STRESS PERIOD     25

 GHB PACKAGE (GHB-1) FLOW RATES   PERIOD     25   STEP        1
 -----------------------------------------------
   NUMBER   CELLID                    RATE      
 -----------------------------------------------
     1      (1,40,6)             -16.853820     
     2      (1,40,7)             -16.704209     
     3      (1,40,8)             -16.459576     
     4      (1,40,9)             -16.178847     
     5      (1,40,10)            -15.909212     
     6      (1,40,11)            -15.670073     
     7      (1,40,12)            -15.481945     
     8      (1,40,13)            -15.378542     
     9      (1,40,14)            -15.441381     
     10     (1,40,15)            -15.823204     
     11     (2,40,6)             -17.431675     
     12     (2,40,7)             -17.274731     
     13     (2,40,8)             -17.018055     
     14     (2,40,9)             -16.723646     
     15     (2,40,10)            -16.441031     
     16     (2,40,11)            -16.190393     
     17     (2,40,12)            -15.993144     
     18     (2,40,13)            -15.884650     
     19     (2,40,14)            -15.950959     
     20     (2,40,15)            -16.349789     
     21     (3,40,6)             -18.926131     
     22     (3,40,7)             -18.755015     
     23     (3,40,8)             -18.474252     
     24     (3,40,9)             -18.152083     
     25     (3,40,10)            -17.845772     
     26     (3,40,11)            -17.574433     
     27     (3,40,12)            -17.361339     
     28     (3,40,13)            -17.242028     
     29     (3,40,14)            -17.315318     
     30     (3,40,15)            -17.751928     
 -----------------------------------------------



 UBDSV06 SAVING              RCH IN MODEL FREYBERG6        PACKAGE FREYBERG6       CONNECTED TO MODEL FREYBERG6        PACKAGE RCH-1            ON UNIT   1031 AT TIME STEP      1, STRESS PERIOD     25
 UBDSV06 SAVING              SFR IN MODEL FREYBERG6        PACKAGE FREYBERG6       CONNECTED TO MODEL FREYBERG6        PACKAGE SFR_1            ON UNIT   1031 AT TIME STEP      1, STRESS PERIOD     25

 HEAD WILL BE SAVED ON UNIT 1032 AT END OF TIME STEP    1, STRESS PERIOD   25


  SFR_1 BUDGET FOR ENTIRE MODEL AT END OF TIME STEP    1, STRESS PERIOD  25
  ------------------------------------------------------------------------------

     CUMULATIVE SFR_1      L**3       RATES FOR THIS TIME STEP      L**3/T
     ------------------                 ------------------------

           IN:                                      IN:
           ---                                      ---
                 GWF =      977696.6177                   GWF =        1421.6440
            RAINFALL =           0.0000              RAINFALL =           0.0000
         EVAPORATION =           0.0000           EVAPORATION =           0.0000
              RUNOFF =           0.0000                RUNOFF =           0.0000
          EXT-INFLOW =       74666.1315            EXT-INFLOW =         154.6956
         EXT-OUTFLOW =           0.0000           EXT-OUTFLOW =           0.0000
             STORAGE =           0.0000               STORAGE =           0.0000

            TOTAL IN =     1052362.7492              TOTAL IN =        1576.3396

          OUT:                                     OUT:
          ----                                     ----
                 GWF =           0.0000                   GWF =           0.0000
            RAINFALL =           0.0000              RAINFALL =           0.0000
         EVAPORATION =           0.0000           EVAPORATION =           0.0000
              RUNOFF =           0.0000                RUNOFF =           0.0000
          EXT-INFLOW =           0.0000            EXT-INFLOW =           0.0000
         EXT-OUTFLOW =     1052362.7492           EXT-OUTFLOW =        1576.3396
             STORAGE =           0.0000               STORAGE =           0.0000

           TOTAL OUT =     1052362.7492             TOTAL OUT =        1576.3396

            IN - OUT =       2.3283E-10              IN - OUT =           0.0000

 PERCENT DISCREPANCY =           0.00     PERCENT DISCREPANCY =           0.00



  VOLUME BUDGET FOR ENTIRE MODEL AT END OF TIME STEP    1, STRESS PERIOD  25
  ---------------------------------------------------------------------------------------------------

     CUMULATIVE VOLUME      L**3       RATES FOR THIS TIME STEP      L**3/T          PACKAGE NAME    
     ------------------                 ------------------------                     ----------------

           IN:                                      IN:
           ---                                      ---
              STO-SS =        2756.7838                STO-SS =           0.0000     STORAGE         
              STO-SY =      429129.4872                STO-SY =           0.0000     STORAGE         
                 WEL =           0.0000                   WEL =           0.0000     WEL-1           
                 GHB =           0.0000                   GHB =           0.0000     GHB-1           
                 RCH =     2032452.1293                   RCH =        4210.8977     RCH-1           
                 SFR =           0.0000                   SFR =           0.0000     SFR_1           

            TOTAL IN =     2464338.4003              TOTAL IN =        4210.8977

          OUT:                                     OUT:
          ----                                     ----
              STO-SS =        2787.1720                STO-SS =          11.4055     STORAGE         
              STO-SY =      433151.5049                STO-SY =        1774.4332     STORAGE         
                 WEL =      712836.4471                   WEL =         478.1317     WEL-1           
                 GHB =      338706.0472                   GHB =         504.5572     GHB-1           
                 RCH =           0.0000                   RCH =           0.0000     RCH-1           
                 SFR =      977721.7728                   SFR =        1438.0024     SFR_1           

           TOTAL OUT =     2465202.9440             TOTAL OUT =        4206.5301

            IN - OUT =        -864.5436              IN - OUT =           4.3676

 PERCENT DISCREPANCY =          -0.04     PERCENT DISCREPANCY =           0.10




         TIME SUMMARY AT END OF TIME STEP    1 IN STRESS PERIOD   25
                    SECONDS     MINUTES      HOURS       DAYS        YEARS
                    -----------------------------------------------------------
   TIME STEP LENGTH 2.67840E+06  44640.      744.00      31.000     8.48734E-02
 STRESS PERIOD TIME 2.67840E+06  44640.      744.00      31.000     8.48734E-02
         TOTAL TIME 6.32448E+07 1.05408E+06  17568.      732.00      2.0041    


end timestep

