                                   MODFLOW 6
                U.S. GEOLOGICAL SURVEY MODULAR HYDROLOGIC MODEL
                            VERSION 6.1.2 06/15/2020
                               ***DEVELOP MODE***

   MODFLOW 6 compiled Aug 03 2020 12:21:56 with IFORT compiler (ver. 19.0.4)

This software is preliminary or provisional and is subject to 
revision. It is being provided to meet the need for timely best 
science. The software has not received final approval by the U.S. 
Geological Survey (USGS). No warranty, expressed or implied, is made 
by the USGS or the U.S. Government as to the functionality of the 
software and related material nor shall the fact of release 
constitute any such warranty. The software is provided on the 
condition that neither the USGS nor the U.S. Government shall be held 
liable for any damages resulting from the authorized or unauthorized 
use of the software.


System command used to initiate simulation:
mf6

MODFLOW was compiled using uniform precision.

Real Variables
  KIND: 8
  TINY (smallest non-zero value):    2.225074-308
  HUGE (largest value):    1.797693+308
  PRECISION: 15
  BIT SIZE: 64

Integer Variables
  KIND: 4
  HUGE (largest value): 2147483647
  BIT SIZE: 32

Long Integer Variables
  KIND: 8
  HUGE (largest value): 9223372036854775807
  BIT SIZE: 64

Logical Variables
  KIND: 4
  BIT SIZE: 32
 

 OPENED mfsim.nam
 FILE TYPE:NAM   UNIT 1001   STATUS:OLD                 
 FORMAT:FORMATTED              ACCESS:SEQUENTIAL          
 ACTION:READ                


 READING SIMULATION OPTIONS
    SIMULATION WILL CONTINUE EVEN IF THERE IS NONCONVERGENCE.
 END OF SIMULATION OPTIONS

 READING SIMULATION TIMING

 OPENED freyberg6.tdis
 FILE TYPE:TDIS   UNIT 1002   STATUS:OLD                 
 FORMAT:FORMATTED              ACCESS:SEQUENTIAL          
 ACTION:READ                


 TDIS -- TEMPORAL DISCRETIZATION PACKAGE,
 VERSION 1 : 11/13/2014 - INPUT READ FROM UNIT 1002
 PROCESSING TDIS OPTIONS
    SIMULATION TIME UNIT IS DAYS
 END OF TDIS OPTIONS
 PROCESSING TDIS DIMENSIONS
   25 STRESS PERIOD(S) IN SIMULATION
 END OF TDIS DIMENSIONS
 PROCESSING TDIS PERIODDATA


 STRESS PERIOD     LENGTH       TIME STEPS     MULTIPLIER FOR DELT
 ----------------------------------------------------------------------------
        1         1.000000          1                    1.000
        2         31.00000          1                    1.000
        3         29.00000          1                    1.000
        4         31.00000          1                    1.000
        5         30.00000          1                    1.000
        6         31.00000          1                    1.000
        7         30.00000          1                    1.000
        8         31.00000          1                    1.000
        9         31.00000          1                    1.000
       10         30.00000          1                    1.000
       11         31.00000          1                    1.000
       12         30.00000          1                    1.000
       13         31.00000          1                    1.000
       14         31.00000          1                    1.000
       15         28.00000          1                    1.000
       16         31.00000          1                    1.000
       17         30.00000          1                    1.000
       18         31.00000          1                    1.000
       19         30.00000          1                    1.000
       20         31.00000          1                    1.000
       21         31.00000          1                    1.000
       22         30.00000          1                    1.000
       23         31.00000          1                    1.000
       24         30.00000          1                    1.000
       25         31.00000          1                    1.000
 END OF TDIS PERIODDATA
 END OF SIMULATION TIMING

 READING SIMULATION MODELS
    GWF6 model FREYBERG6 will be created as model 1
 END OF SIMULATION MODELS

 READING SIMULATION EXCHANGES
 END OF SIMULATION EXCHANGES

 READING SOLUTIONGROUP

 Creating solution: SLN_1           

 OPENED freyberg6.ims
 FILE TYPE:IMS   UNIT 1015   STATUS:OLD                 
 FORMAT:FORMATTED              ACCESS:SEQUENTIAL          
 ACTION:READ                

 END OF SIMULATION SOLUTIONGROUP

 IMS -- ITERATIVE MODEL SOLUTION PACKAGE, VERSION 6, 4/28/2017
         INPUT READ FROM UNIT 1015

 PROCESSING IMS OPTIONS
 SIMPLE OPTION:
 DEFAULT SOLVER INPUT VALUES FOR FAST SOLUTIONS
 END OF IMS OPTIONS

 PROCESSING IMS NONLINEAR
 END OF IMS NONLINEAR DATA
 **UNDER-RELAXATION WILL BE USED***
 
 ***IMS LINEAR SOLVER WILL BE USED***

 IMSLINEAR -- UNSTRUCTURED LINEAR SOLUTION PACKAGE, VERSION 8, 04/28/2017

 PROCESSING LINEAR DATA
 END OF LINEAR DATA
 
 OUTER ITERATION CONVERGENCE CRITERION    (DVCLOSE) =    0.100000E-01
 MAXIMUM NUMBER OF OUTER ITERATIONS        (MXITER) = 100
 SOLVER PRINTOUT INDEX                     (IPRIMS) = 1
 NONLINEAR ITERATION METHOD            (NONLINMETH) = 3
 LINEAR SOLUTION METHOD                   (LINMETH) = 1
 UNDER-RELAXATION WEIGHT REDUCTION FACTOR   (THETA) =    0.850000E+00
 UNDER-RELAXATION WEIGHT INCREASE INCREMENT (KAPPA) =    0.100000E-04
 UNDER-RELAXATION PREVIOUS HISTORY FACTOR   (GAMMA) =    0.000000E+00
 UNDER-RELAXATION MOMENTUM TERM         (AMOMENTUM) =    0.100000E+00
 MAXIMUM NUMBER OF BACKTRACKS            (NUMTRACK) = 50
 BACKTRACKING TOLERANCE FACTOR               (BTOL) =    0.110000E+01
 BACKTRACKING REDUCTION FACTOR             (BREDUC) =    0.700000E+00
 BACKTRACKING RESIDUAL LIMIT              (RES_LIM) =    0.100000E+03

       SOLUTION BY THE BICONJUGATE-GRADIENT STABILIZED METHOD
 ------------------------------------------------------------------
 MAXIMUM OF 100 CALLS OF SOLUTION ROUTINE
 MAXIMUM OF 50 INTERNAL ITERATIONS PER CALL TO SOLUTION ROUTINE
 LINEAR ACCELERATION METHOD            = BCGS      
 MATRIX PRECONDITIONING TYPE           = INCOMPLETE LUT      
 MATRIX SCALING APPROACH               = NO SCALING          
 MATRIX REORDERING APPROACH            = RCM ORDERING             
 NUMBER OF ORTHOGONALIZATIONS          = 2
 HEAD CHANGE CRITERION FOR CLOSURE     =    0.10000E-03
 RESIDUAL CHANGE CRITERION FOR CLOSURE =    0.10000E+00
 RESIDUAL CONVERGENCE OPTION           = 0
 RESIDUAL CONVERGENCE NORM             = INFINITY NORM   
 RELAXATION FACTOR                     =    0.00000E+00
 NUMBER OF LEVELS                      =              1
 DROP TOLERANCE                        =    0.10000E-02


1
                            STRESS PERIOD NO.    1, LENGTH =   1.000000    
                            -----------------------------------------------

                              NUMBER OF TIME STEPS =     1

                               MULTIPLIER FOR DELT =     1.000

                            INITIAL TIME STEP SIZE =   1.000000    



 PSEUDO-TRANSIENT CONTINUATION WILL BE APPLIED TO MODEL 1 ("FREYBERG6") DURING THIS TIME STEP

 OUTER ITERATION SUMMARY
 ----------------------------------------------------------------------------------------------------------------------------------------------------------------
                                OUTER      INNER  BACKTRACK  BACKTRACK        INCOMING        OUTGOING                    STEP   MAXIMUM CHANGE MODEL-(CELLID) OR
 OUTER ITERATION STEP       ITERATION  ITERATION       FLAG ITERATIONS        RESIDUAL        RESIDUAL  MAXIMUM CHANGE SUCCESS             MODEL-PACKAGE-(NUMBER)
 ----------------------------------------------------------------------------------------------------------------------------------------------------------------
 Backtracking                       1                     0          0       1902097.8       1902097.8                       *                                   
 Model                              1         21                                                             753.19005                            1_GWF-(3,40,16)
 Backtracking                       2                     0          0       186751.91       186751.91                       *                                   
 Model                              2         41                                                             494.29960                            1_GWF-(1,40,16)
 Backtracking                       3                     0          0       43598.635       43598.635                       *                                   
 Model                              3         50                                                             34.120019                            1_GWF-(1,40,16)
 Backtracking                       4                     0          0       11343.825       11343.825                       *                                   
 Model                              4         50                                                             5.0923183                            1_GWF-(3,39,16)
 Backtracking                       5                     0          0       2286.7228       2286.7228                       *                                   
 Model                              5         50                                                           -0.98883929                             1_GWF-(1,11,1)
 Backtracking                       6                     0          0       865.30556       865.30556                       *                                   
 Model                              6         50                                                           -0.15281177                            1_GWF-(1,10,13)
 Backtracking                       7                     0          0       279.00633       279.00633                       *                                   
 Model                              7         24                                                       -4.33260315E-02                             1_GWF-(1,30,8)
 Backtracking                       8                     0          0       82.837061       82.837061                       *                                   
 Model                              8         29                                                       -2.85988913E-02                             1_GWF-(1,31,7)
 Backtracking                       9                     0          0       58.561060       58.561060                       *                                   
 Model                              9         39                                                       -1.56912068E-02                             1_GWF-(1,15,2)
 Backtracking                      10                     0          0       25.995006       25.995006                       *                                   
 Model                             10         11                                                       -2.39651187E-03       *                     1_GWF-(1,31,7)
 ----------------------------------------------------------------------------------------------------------------------------------------------------------------


 10 CALLS TO NUMERICAL SOLUTION IN TIME STEP 1 STRESS PERIOD 1
 365 TOTAL ITERATIONS
1
                            STRESS PERIOD NO.    2, LENGTH =   31.00000    
                            -----------------------------------------------

                              NUMBER OF TIME STEPS =     1

                               MULTIPLIER FOR DELT =     1.000

                            INITIAL TIME STEP SIZE =   31.00000    

 OUTER ITERATION SUMMARY
 ----------------------------------------------------------------------------------------------------------------------------------------------------------------
                                OUTER      INNER  BACKTRACK  BACKTRACK        INCOMING        OUTGOING                    STEP   MAXIMUM CHANGE MODEL-(CELLID) OR
 OUTER ITERATION STEP       ITERATION  ITERATION       FLAG ITERATIONS        RESIDUAL        RESIDUAL  MAXIMUM CHANGE SUCCESS             MODEL-PACKAGE-(NUMBER)
 ----------------------------------------------------------------------------------------------------------------------------------------------------------------
 Backtracking                       1                     0          0       253.86138       253.86138                       *                                   
 Model                              1         28                                                            0.20173497                             1_GWF-(3,30,7)
 Backtracking                       2                     0          0       6.2281275       6.2281275                       *                                   
 Model                              2         18                                                        4.50362243E-03       *                    1_GWF-(1,38,16)
 ----------------------------------------------------------------------------------------------------------------------------------------------------------------


 2 CALLS TO NUMERICAL SOLUTION IN TIME STEP 1 STRESS PERIOD 2
 46 TOTAL ITERATIONS
1
                            STRESS PERIOD NO.    3, LENGTH =   29.00000    
                            -----------------------------------------------

                              NUMBER OF TIME STEPS =     1

                               MULTIPLIER FOR DELT =     1.000

                            INITIAL TIME STEP SIZE =   29.00000    

 OUTER ITERATION SUMMARY
 ----------------------------------------------------------------------------------------------------------------------------------------------------------------
                                OUTER      INNER  BACKTRACK  BACKTRACK        INCOMING        OUTGOING                    STEP   MAXIMUM CHANGE MODEL-(CELLID) OR
 OUTER ITERATION STEP       ITERATION  ITERATION       FLAG ITERATIONS        RESIDUAL        RESIDUAL  MAXIMUM CHANGE SUCCESS             MODEL-PACKAGE-(NUMBER)
 ----------------------------------------------------------------------------------------------------------------------------------------------------------------
 Backtracking                       1                     0          0       72.995244       72.995244                       *                                   
 Model                              1         23                                                            0.12375514                             1_GWF-(1,26,1)
 Backtracking                       2                     0          0       4.3762386       4.3762386                       *                                   
 Model                              2         13                                                        2.97919123E-03       *                    1_GWF-(1,40,16)
 ----------------------------------------------------------------------------------------------------------------------------------------------------------------


 2 CALLS TO NUMERICAL SOLUTION IN TIME STEP 1 STRESS PERIOD 3
 36 TOTAL ITERATIONS
1
                            STRESS PERIOD NO.    4, LENGTH =   31.00000    
                            -----------------------------------------------

                              NUMBER OF TIME STEPS =     1

                               MULTIPLIER FOR DELT =     1.000

                            INITIAL TIME STEP SIZE =   31.00000    

 OUTER ITERATION SUMMARY
 ----------------------------------------------------------------------------------------------------------------------------------------------------------------
                                OUTER      INNER  BACKTRACK  BACKTRACK        INCOMING        OUTGOING                    STEP   MAXIMUM CHANGE MODEL-(CELLID) OR
 OUTER ITERATION STEP       ITERATION  ITERATION       FLAG ITERATIONS        RESIDUAL        RESIDUAL  MAXIMUM CHANGE SUCCESS             MODEL-PACKAGE-(NUMBER)
 ----------------------------------------------------------------------------------------------------------------------------------------------------------------
 Backtracking                       1                     0          0       95.408135       95.408135                       *                                   
 Model                              1         24                                                            0.10464457                             1_GWF-(1,16,1)
 Backtracking                       2                     0          0       2.1306623       2.1306623                       *                                   
 Model                              2          3                                                        9.98063165E-04       *                    1_GWF-(1,40,16)
 ----------------------------------------------------------------------------------------------------------------------------------------------------------------


 2 CALLS TO NUMERICAL SOLUTION IN TIME STEP 1 STRESS PERIOD 4
 27 TOTAL ITERATIONS
1
                            STRESS PERIOD NO.    5, LENGTH =   30.00000    
                            -----------------------------------------------

                              NUMBER OF TIME STEPS =     1

                               MULTIPLIER FOR DELT =     1.000

                            INITIAL TIME STEP SIZE =   30.00000    

 OUTER ITERATION SUMMARY
 ----------------------------------------------------------------------------------------------------------------------------------------------------------------
                                OUTER      INNER  BACKTRACK  BACKTRACK        INCOMING        OUTGOING                    STEP   MAXIMUM CHANGE MODEL-(CELLID) OR
 OUTER ITERATION STEP       ITERATION  ITERATION       FLAG ITERATIONS        RESIDUAL        RESIDUAL  MAXIMUM CHANGE SUCCESS             MODEL-PACKAGE-(NUMBER)
 ----------------------------------------------------------------------------------------------------------------------------------------------------------------
 Backtracking                       1                     0          0       127.04551       127.04551                       *                                   
 Model                              1         29                                                       -5.04136926E-02                            1_GWF-(3,10,17)
 Backtracking                       2                     0          0      0.85453455      0.85453455                       *                                   
 Model                              2          3                                                       -4.17710301E-04       *                    1_GWF-(1,40,16)
 ----------------------------------------------------------------------------------------------------------------------------------------------------------------


 2 CALLS TO NUMERICAL SOLUTION IN TIME STEP 1 STRESS PERIOD 5
 32 TOTAL ITERATIONS
1
                            STRESS PERIOD NO.    6, LENGTH =   31.00000    
                            -----------------------------------------------

                              NUMBER OF TIME STEPS =     1

                               MULTIPLIER FOR DELT =     1.000

                            INITIAL TIME STEP SIZE =   31.00000    

 OUTER ITERATION SUMMARY
 ----------------------------------------------------------------------------------------------------------------------------------------------------------------
                                OUTER      INNER  BACKTRACK  BACKTRACK        INCOMING        OUTGOING                    STEP   MAXIMUM CHANGE MODEL-(CELLID) OR
 OUTER ITERATION STEP       ITERATION  ITERATION       FLAG ITERATIONS        RESIDUAL        RESIDUAL  MAXIMUM CHANGE SUCCESS             MODEL-PACKAGE-(NUMBER)
 ----------------------------------------------------------------------------------------------------------------------------------------------------------------
 Backtracking                       1                     0          0       138.74062       138.74062                       *                                   
 Model                              1         30                                                           -0.12480049                             1_GWF-(3,30,7)
 Backtracking                       2                     0          0       3.8108451       3.8108451                       *                                   
 Model                              2         15                                                       -4.24830950E-03       *                     1_GWF-(3,15,3)
 ----------------------------------------------------------------------------------------------------------------------------------------------------------------


 2 CALLS TO NUMERICAL SOLUTION IN TIME STEP 1 STRESS PERIOD 6
 45 TOTAL ITERATIONS
1
                            STRESS PERIOD NO.    7, LENGTH =   30.00000    
                            -----------------------------------------------

                              NUMBER OF TIME STEPS =     1

                               MULTIPLIER FOR DELT =     1.000

                            INITIAL TIME STEP SIZE =   30.00000    

 OUTER ITERATION SUMMARY
 ----------------------------------------------------------------------------------------------------------------------------------------------------------------
                                OUTER      INNER  BACKTRACK  BACKTRACK        INCOMING        OUTGOING                    STEP   MAXIMUM CHANGE MODEL-(CELLID) OR
 OUTER ITERATION STEP       ITERATION  ITERATION       FLAG ITERATIONS        RESIDUAL        RESIDUAL  MAXIMUM CHANGE SUCCESS             MODEL-PACKAGE-(NUMBER)
 ----------------------------------------------------------------------------------------------------------------------------------------------------------------
 Backtracking                       1                     0          0       123.97505       123.97505                       *                                   
 Model                              1         32                                                           -0.16630769                             1_GWF-(1,30,7)
 Backtracking                       2                     0          0       5.8497175       5.8497175                       *                                   
 Model                              2         16                                                       -4.28893782E-03       *                    1_GWF-(1,39,16)
 ----------------------------------------------------------------------------------------------------------------------------------------------------------------


 2 CALLS TO NUMERICAL SOLUTION IN TIME STEP 1 STRESS PERIOD 7
 48 TOTAL ITERATIONS
1
                            STRESS PERIOD NO.    8, LENGTH =   31.00000    
                            -----------------------------------------------

                              NUMBER OF TIME STEPS =     1

                               MULTIPLIER FOR DELT =     1.000

                            INITIAL TIME STEP SIZE =   31.00000    

 OUTER ITERATION SUMMARY
 ----------------------------------------------------------------------------------------------------------------------------------------------------------------
                                OUTER      INNER  BACKTRACK  BACKTRACK        INCOMING        OUTGOING                    STEP   MAXIMUM CHANGE MODEL-(CELLID) OR
 OUTER ITERATION STEP       ITERATION  ITERATION       FLAG ITERATIONS        RESIDUAL        RESIDUAL  MAXIMUM CHANGE SUCCESS             MODEL-PACKAGE-(NUMBER)
 ----------------------------------------------------------------------------------------------------------------------------------------------------------------
 Backtracking                       1                     0          0       97.637277       97.637277                       *                                   
 Model                              1         26                                                           -0.17154524                             1_GWF-(1,30,7)
 Backtracking                       2                     0          0       7.0510924       7.0510924                       *                                   
 Model                              2         19                                                       -4.97171997E-03       *                    1_GWF-(1,40,16)
 ----------------------------------------------------------------------------------------------------------------------------------------------------------------


 2 CALLS TO NUMERICAL SOLUTION IN TIME STEP 1 STRESS PERIOD 8
 45 TOTAL ITERATIONS
1
                            STRESS PERIOD NO.    9, LENGTH =   31.00000    
                            -----------------------------------------------

                              NUMBER OF TIME STEPS =     1

                               MULTIPLIER FOR DELT =     1.000

                            INITIAL TIME STEP SIZE =   31.00000    

 OUTER ITERATION SUMMARY
 ----------------------------------------------------------------------------------------------------------------------------------------------------------------
                                OUTER      INNER  BACKTRACK  BACKTRACK        INCOMING        OUTGOING                    STEP   MAXIMUM CHANGE MODEL-(CELLID) OR
 OUTER ITERATION STEP       ITERATION  ITERATION       FLAG ITERATIONS        RESIDUAL        RESIDUAL  MAXIMUM CHANGE SUCCESS             MODEL-PACKAGE-(NUMBER)
 ----------------------------------------------------------------------------------------------------------------------------------------------------------------
 Backtracking                       1                     0          0       77.394329       77.394329                       *                                   
 Model                              1         24                                                           -0.15980915                             1_GWF-(1,19,1)
 Backtracking                       2                     0          0       6.3229716       6.3229716                       *                                   
 Model                              2          8                                                       -3.87192178E-03       *                    1_GWF-(1,40,16)
 ----------------------------------------------------------------------------------------------------------------------------------------------------------------


 2 CALLS TO NUMERICAL SOLUTION IN TIME STEP 1 STRESS PERIOD 9
 32 TOTAL ITERATIONS
1
                            STRESS PERIOD NO.   10, LENGTH =   30.00000    
                            -----------------------------------------------

                              NUMBER OF TIME STEPS =     1

                               MULTIPLIER FOR DELT =     1.000

                            INITIAL TIME STEP SIZE =   30.00000    

 OUTER ITERATION SUMMARY
 ----------------------------------------------------------------------------------------------------------------------------------------------------------------
                                OUTER      INNER  BACKTRACK  BACKTRACK        INCOMING        OUTGOING                    STEP   MAXIMUM CHANGE MODEL-(CELLID) OR
 OUTER ITERATION STEP       ITERATION  ITERATION       FLAG ITERATIONS        RESIDUAL        RESIDUAL  MAXIMUM CHANGE SUCCESS             MODEL-PACKAGE-(NUMBER)
 ----------------------------------------------------------------------------------------------------------------------------------------------------------------
 Backtracking                       1                     0          0       59.157155       59.157155                       *                                   
 Model                              1         23                                                           -0.12210926                             1_GWF-(1,15,1)
 Backtracking                       2                     0          0       3.5250980       3.5250980                       *                                   
 Model                              2         13                                                       -2.98917596E-03       *                    1_GWF-(1,37,16)
 ----------------------------------------------------------------------------------------------------------------------------------------------------------------


 2 CALLS TO NUMERICAL SOLUTION IN TIME STEP 1 STRESS PERIOD 10
 36 TOTAL ITERATIONS
1
                            STRESS PERIOD NO.   11, LENGTH =   31.00000    
                            -----------------------------------------------

                              NUMBER OF TIME STEPS =     1

                               MULTIPLIER FOR DELT =     1.000

                            INITIAL TIME STEP SIZE =   31.00000    

 OUTER ITERATION SUMMARY
 ----------------------------------------------------------------------------------------------------------------------------------------------------------------
                                OUTER      INNER  BACKTRACK  BACKTRACK        INCOMING        OUTGOING                    STEP   MAXIMUM CHANGE MODEL-(CELLID) OR
 OUTER ITERATION STEP       ITERATION  ITERATION       FLAG ITERATIONS        RESIDUAL        RESIDUAL  MAXIMUM CHANGE SUCCESS             MODEL-PACKAGE-(NUMBER)
 ----------------------------------------------------------------------------------------------------------------------------------------------------------------
 Backtracking                       1                     0          0       97.997935       97.997935                       *                                   
 Model                              1         24                                                       -5.45110264E-02                             1_GWF-(1,14,1)
 Backtracking                       2                     0          0       1.1650712       1.1650712                       *                                   
 Model                              2          9                                                       -3.04291045E-03       *                     1_GWF-(3,12,2)
 ----------------------------------------------------------------------------------------------------------------------------------------------------------------


 2 CALLS TO NUMERICAL SOLUTION IN TIME STEP 1 STRESS PERIOD 11
 33 TOTAL ITERATIONS
1
                            STRESS PERIOD NO.   12, LENGTH =   30.00000    
                            -----------------------------------------------

                              NUMBER OF TIME STEPS =     1

                               MULTIPLIER FOR DELT =     1.000

                            INITIAL TIME STEP SIZE =   30.00000    

 OUTER ITERATION SUMMARY
 ----------------------------------------------------------------------------------------------------------------------------------------------------------------
                                OUTER      INNER  BACKTRACK  BACKTRACK        INCOMING        OUTGOING                    STEP   MAXIMUM CHANGE MODEL-(CELLID) OR
 OUTER ITERATION STEP       ITERATION  ITERATION       FLAG ITERATIONS        RESIDUAL        RESIDUAL  MAXIMUM CHANGE SUCCESS             MODEL-PACKAGE-(NUMBER)
 ----------------------------------------------------------------------------------------------------------------------------------------------------------------
 Backtracking                       1                     0          0       136.86423       136.86423                       *                                   
 Model                              1         30                                                            0.11622179                             1_GWF-(3,30,7)
 Backtracking                       2                     0          0       4.9509593       4.9509593                       *                                   
 Model                              2         13                                                        3.82740084E-03       *                    1_GWF-(1,39,16)
 ----------------------------------------------------------------------------------------------------------------------------------------------------------------


 2 CALLS TO NUMERICAL SOLUTION IN TIME STEP 1 STRESS PERIOD 12
 43 TOTAL ITERATIONS
1
                            STRESS PERIOD NO.   13, LENGTH =   31.00000    
                            -----------------------------------------------

                              NUMBER OF TIME STEPS =     1

                               MULTIPLIER FOR DELT =     1.000

                            INITIAL TIME STEP SIZE =   31.00000    

 OUTER ITERATION SUMMARY
 ----------------------------------------------------------------------------------------------------------------------------------------------------------------
                                OUTER      INNER  BACKTRACK  BACKTRACK        INCOMING        OUTGOING                    STEP   MAXIMUM CHANGE MODEL-(CELLID) OR
 OUTER ITERATION STEP       ITERATION  ITERATION       FLAG ITERATIONS        RESIDUAL        RESIDUAL  MAXIMUM CHANGE SUCCESS             MODEL-PACKAGE-(NUMBER)
 ----------------------------------------------------------------------------------------------------------------------------------------------------------------
 Backtracking                       1                     0          0       145.46506       145.46506                       *                                   
 Model                              1         39                                                            0.17596872                             1_GWF-(3,30,7)
 Backtracking                       2                     0          0       6.9269196       6.9269196                       *                                   
 Model                              2         16                                                        5.17136577E-03       *                    1_GWF-(1,39,16)
 ----------------------------------------------------------------------------------------------------------------------------------------------------------------


 2 CALLS TO NUMERICAL SOLUTION IN TIME STEP 1 STRESS PERIOD 13
 55 TOTAL ITERATIONS
1
                            STRESS PERIOD NO.   14, LENGTH =   31.00000    
                            -----------------------------------------------

                              NUMBER OF TIME STEPS =     1

                               MULTIPLIER FOR DELT =     1.000

                            INITIAL TIME STEP SIZE =   31.00000    

 OUTER ITERATION SUMMARY
 ----------------------------------------------------------------------------------------------------------------------------------------------------------------
                                OUTER      INNER  BACKTRACK  BACKTRACK        INCOMING        OUTGOING                    STEP   MAXIMUM CHANGE MODEL-(CELLID) OR
 OUTER ITERATION STEP       ITERATION  ITERATION       FLAG ITERATIONS        RESIDUAL        RESIDUAL  MAXIMUM CHANGE SUCCESS             MODEL-PACKAGE-(NUMBER)
 ----------------------------------------------------------------------------------------------------------------------------------------------------------------
 Backtracking                       1                     0          0       119.38892       119.38892                       *                                   
 Model                              1         42                                                            0.18219987                             1_GWF-(1,30,7)
 Backtracking                       2                     0          0       6.5968342       6.5968342                       *                                   
 Model                              2          9                                                        4.46379589E-03       *                    1_GWF-(1,40,16)
 ----------------------------------------------------------------------------------------------------------------------------------------------------------------


 2 CALLS TO NUMERICAL SOLUTION IN TIME STEP 1 STRESS PERIOD 14
 51 TOTAL ITERATIONS
1
                            STRESS PERIOD NO.   15, LENGTH =   28.00000    
                            -----------------------------------------------

                              NUMBER OF TIME STEPS =     1

                               MULTIPLIER FOR DELT =     1.000

                            INITIAL TIME STEP SIZE =   28.00000    

 OUTER ITERATION SUMMARY
 ----------------------------------------------------------------------------------------------------------------------------------------------------------------
                                OUTER      INNER  BACKTRACK  BACKTRACK        INCOMING        OUTGOING                    STEP   MAXIMUM CHANGE MODEL-(CELLID) OR
 OUTER ITERATION STEP       ITERATION  ITERATION       FLAG ITERATIONS        RESIDUAL        RESIDUAL  MAXIMUM CHANGE SUCCESS             MODEL-PACKAGE-(NUMBER)
 ----------------------------------------------------------------------------------------------------------------------------------------------------------------
 Backtracking                       1                     0          0       73.684329       73.684329                       *                                   
 Model                              1         21                                                            0.13200429                             1_GWF-(1,25,1)
 Backtracking                       2                     0          0       4.3907230       4.3907230                       *                                   
 Model                              2         13                                                        2.89250476E-03       *                    1_GWF-(1,40,16)
 ----------------------------------------------------------------------------------------------------------------------------------------------------------------


 2 CALLS TO NUMERICAL SOLUTION IN TIME STEP 1 STRESS PERIOD 15
 34 TOTAL ITERATIONS
1
                            STRESS PERIOD NO.   16, LENGTH =   31.00000    
                            -----------------------------------------------

                              NUMBER OF TIME STEPS =     1

                               MULTIPLIER FOR DELT =     1.000

                            INITIAL TIME STEP SIZE =   31.00000    

 OUTER ITERATION SUMMARY
 ----------------------------------------------------------------------------------------------------------------------------------------------------------------
                                OUTER      INNER  BACKTRACK  BACKTRACK        INCOMING        OUTGOING                    STEP   MAXIMUM CHANGE MODEL-(CELLID) OR
 OUTER ITERATION STEP       ITERATION  ITERATION       FLAG ITERATIONS        RESIDUAL        RESIDUAL  MAXIMUM CHANGE SUCCESS             MODEL-PACKAGE-(NUMBER)
 ----------------------------------------------------------------------------------------------------------------------------------------------------------------
 Backtracking                       1                     0          0       65.951127       65.951127                       *                                   
 Model                              1         26                                                            0.10145740                             1_GWF-(1,17,1)
 Backtracking                       2                     0          0       1.9308192       1.9308192                       *                                   
 Model                              2          3                                                        9.24508173E-04       *                    1_GWF-(1,40,16)
 ----------------------------------------------------------------------------------------------------------------------------------------------------------------


 2 CALLS TO NUMERICAL SOLUTION IN TIME STEP 1 STRESS PERIOD 16
 29 TOTAL ITERATIONS
1
                            STRESS PERIOD NO.   17, LENGTH =   30.00000    
                            -----------------------------------------------

                              NUMBER OF TIME STEPS =     1

                               MULTIPLIER FOR DELT =     1.000

                            INITIAL TIME STEP SIZE =   30.00000    

 OUTER ITERATION SUMMARY
 ----------------------------------------------------------------------------------------------------------------------------------------------------------------
                                OUTER      INNER  BACKTRACK  BACKTRACK        INCOMING        OUTGOING                    STEP   MAXIMUM CHANGE MODEL-(CELLID) OR
 OUTER ITERATION STEP       ITERATION  ITERATION       FLAG ITERATIONS        RESIDUAL        RESIDUAL  MAXIMUM CHANGE SUCCESS             MODEL-PACKAGE-(NUMBER)
 ----------------------------------------------------------------------------------------------------------------------------------------------------------------
 Backtracking                       1                     0          0       109.31319       109.31319                       *                                   
 Model                              1         26                                                       -5.32019194E-02                            1_GWF-(3,10,17)
 Backtracking                       2                     0          0       1.3383108       1.3383108                       *                                   
 Model                              2          3                                                       -7.19432085E-04       *                    1_GWF-(1,40,16)
 ----------------------------------------------------------------------------------------------------------------------------------------------------------------


 2 CALLS TO NUMERICAL SOLUTION IN TIME STEP 1 STRESS PERIOD 17
 29 TOTAL ITERATIONS
1
                            STRESS PERIOD NO.   18, LENGTH =   31.00000    
                            -----------------------------------------------

                              NUMBER OF TIME STEPS =     1

                               MULTIPLIER FOR DELT =     1.000

                            INITIAL TIME STEP SIZE =   31.00000    

 OUTER ITERATION SUMMARY
 ----------------------------------------------------------------------------------------------------------------------------------------------------------------
                                OUTER      INNER  BACKTRACK  BACKTRACK        INCOMING        OUTGOING                    STEP   MAXIMUM CHANGE MODEL-(CELLID) OR
 OUTER ITERATION STEP       ITERATION  ITERATION       FLAG ITERATIONS        RESIDUAL        RESIDUAL  MAXIMUM CHANGE SUCCESS             MODEL-PACKAGE-(NUMBER)
 ----------------------------------------------------------------------------------------------------------------------------------------------------------------
 Backtracking                       1                     0          0       141.87643       141.87643                       *                                   
 Model                              1         30                                                           -0.13412268                             1_GWF-(3,30,7)
 Backtracking                       2                     0          0       4.3012253       4.3012253                       *                                   
 Model                              2         13                                                       -3.28401910E-03       *                    1_GWF-(1,39,16)
 ----------------------------------------------------------------------------------------------------------------------------------------------------------------


 2 CALLS TO NUMERICAL SOLUTION IN TIME STEP 1 STRESS PERIOD 18
 43 TOTAL ITERATIONS
1
                            STRESS PERIOD NO.   19, LENGTH =   30.00000    
                            -----------------------------------------------

                              NUMBER OF TIME STEPS =     1

                               MULTIPLIER FOR DELT =     1.000

                            INITIAL TIME STEP SIZE =   30.00000    

 OUTER ITERATION SUMMARY
 ----------------------------------------------------------------------------------------------------------------------------------------------------------------
                                OUTER      INNER  BACKTRACK  BACKTRACK        INCOMING        OUTGOING                    STEP   MAXIMUM CHANGE MODEL-(CELLID) OR
 OUTER ITERATION STEP       ITERATION  ITERATION       FLAG ITERATIONS        RESIDUAL        RESIDUAL  MAXIMUM CHANGE SUCCESS             MODEL-PACKAGE-(NUMBER)
 ----------------------------------------------------------------------------------------------------------------------------------------------------------------
 Backtracking                       1                     0          0       141.51399       141.51399                       *                                   
 Model                              1         36                                                           -0.17636089                             1_GWF-(3,30,7)
 Backtracking                       2                     0          0       6.2676939       6.2676939                       *                                   
 Model                              2          9                                                       -4.23945403E-03       *                    1_GWF-(1,40,16)
 ----------------------------------------------------------------------------------------------------------------------------------------------------------------


 2 CALLS TO NUMERICAL SOLUTION IN TIME STEP 1 STRESS PERIOD 19
 45 TOTAL ITERATIONS
1
                            STRESS PERIOD NO.   20, LENGTH =   31.00000    
                            -----------------------------------------------

                              NUMBER OF TIME STEPS =     1

                               MULTIPLIER FOR DELT =     1.000

                            INITIAL TIME STEP SIZE =   31.00000    

 OUTER ITERATION SUMMARY
 ----------------------------------------------------------------------------------------------------------------------------------------------------------------
                                OUTER      INNER  BACKTRACK  BACKTRACK        INCOMING        OUTGOING                    STEP   MAXIMUM CHANGE MODEL-(CELLID) OR
 OUTER ITERATION STEP       ITERATION  ITERATION       FLAG ITERATIONS        RESIDUAL        RESIDUAL  MAXIMUM CHANGE SUCCESS             MODEL-PACKAGE-(NUMBER)
 ----------------------------------------------------------------------------------------------------------------------------------------------------------------
 Backtracking                       1                     0          0       108.39880       108.39880                       *                                   
 Model                              1         32                                                           -0.17459589                             1_GWF-(1,30,7)
 Backtracking                       2                     0          0       7.1260176       7.1260176                       *                                   
 Model                              2          8                                                       -4.49488701E-03       *                    1_GWF-(1,40,16)
 ----------------------------------------------------------------------------------------------------------------------------------------------------------------


 2 CALLS TO NUMERICAL SOLUTION IN TIME STEP 1 STRESS PERIOD 20
 40 TOTAL ITERATIONS
1
                            STRESS PERIOD NO.   21, LENGTH =   31.00000    
                            -----------------------------------------------

                              NUMBER OF TIME STEPS =     1

                               MULTIPLIER FOR DELT =     1.000

                            INITIAL TIME STEP SIZE =   31.00000    

 OUTER ITERATION SUMMARY
 ----------------------------------------------------------------------------------------------------------------------------------------------------------------
                                OUTER      INNER  BACKTRACK  BACKTRACK        INCOMING        OUTGOING                    STEP   MAXIMUM CHANGE MODEL-(CELLID) OR
 OUTER ITERATION STEP       ITERATION  ITERATION       FLAG ITERATIONS        RESIDUAL        RESIDUAL  MAXIMUM CHANGE SUCCESS             MODEL-PACKAGE-(NUMBER)
 ----------------------------------------------------------------------------------------------------------------------------------------------------------------
 Backtracking                       1                     0          0       64.645807       64.645807                       *                                   
 Model                              1         28                                                           -0.13770075                             1_GWF-(1,20,1)
 Backtracking                       2                     0          0       5.5899851       5.5899851                       *                                   
 Model                              2          9                                                       -3.79850924E-03       *                    1_GWF-(1,40,16)
 ----------------------------------------------------------------------------------------------------------------------------------------------------------------


 2 CALLS TO NUMERICAL SOLUTION IN TIME STEP 1 STRESS PERIOD 21
 37 TOTAL ITERATIONS
1
                            STRESS PERIOD NO.   22, LENGTH =   30.00000    
                            -----------------------------------------------

                              NUMBER OF TIME STEPS =     1

                               MULTIPLIER FOR DELT =     1.000

                            INITIAL TIME STEP SIZE =   30.00000    

 OUTER ITERATION SUMMARY
 ----------------------------------------------------------------------------------------------------------------------------------------------------------------
                                OUTER      INNER  BACKTRACK  BACKTRACK        INCOMING        OUTGOING                    STEP   MAXIMUM CHANGE MODEL-(CELLID) OR
 OUTER ITERATION STEP       ITERATION  ITERATION       FLAG ITERATIONS        RESIDUAL        RESIDUAL  MAXIMUM CHANGE SUCCESS             MODEL-PACKAGE-(NUMBER)
 ----------------------------------------------------------------------------------------------------------------------------------------------------------------
 Backtracking                       1                     0          0       74.656892       74.656892                       *                                   
 Model                              1         22                                                       -8.19869713E-02                             1_GWF-(1,16,1)
 Backtracking                       2                     0          0       1.6792509       1.6792509                       *                                   
 Model                              2         13                                                       -2.32044416E-03       *                    1_GWF-(3,33,20)
 ----------------------------------------------------------------------------------------------------------------------------------------------------------------


 2 CALLS TO NUMERICAL SOLUTION IN TIME STEP 1 STRESS PERIOD 22
 35 TOTAL ITERATIONS
1
                            STRESS PERIOD NO.   23, LENGTH =   31.00000    
                            -----------------------------------------------

                              NUMBER OF TIME STEPS =     1

                               MULTIPLIER FOR DELT =     1.000

                            INITIAL TIME STEP SIZE =   31.00000    

 OUTER ITERATION SUMMARY
 ----------------------------------------------------------------------------------------------------------------------------------------------------------------
                                OUTER      INNER  BACKTRACK  BACKTRACK        INCOMING        OUTGOING                    STEP   MAXIMUM CHANGE MODEL-(CELLID) OR
 OUTER ITERATION STEP       ITERATION  ITERATION       FLAG ITERATIONS        RESIDUAL        RESIDUAL  MAXIMUM CHANGE SUCCESS             MODEL-PACKAGE-(NUMBER)
 ----------------------------------------------------------------------------------------------------------------------------------------------------------------
 Backtracking                       1                     0          0       119.95108       119.95108                       *                                   
 Model                              1         31                                                        7.46216518E-02                            1_GWF-(3,27,11)
 Backtracking                       2                     0          0       3.1125455       3.1125455                       *                                   
 Model                              2         13                                                        2.56133855E-03       *                    1_GWF-(1,38,16)
 ----------------------------------------------------------------------------------------------------------------------------------------------------------------


 2 CALLS TO NUMERICAL SOLUTION IN TIME STEP 1 STRESS PERIOD 23
 44 TOTAL ITERATIONS
1
                            STRESS PERIOD NO.   24, LENGTH =   30.00000    
                            -----------------------------------------------

                              NUMBER OF TIME STEPS =     1

                               MULTIPLIER FOR DELT =     1.000

                            INITIAL TIME STEP SIZE =   30.00000    

 OUTER ITERATION SUMMARY
 ----------------------------------------------------------------------------------------------------------------------------------------------------------------
                                OUTER      INNER  BACKTRACK  BACKTRACK        INCOMING        OUTGOING                    STEP   MAXIMUM CHANGE MODEL-(CELLID) OR
 OUTER ITERATION STEP       ITERATION  ITERATION       FLAG ITERATIONS        RESIDUAL        RESIDUAL  MAXIMUM CHANGE SUCCESS             MODEL-PACKAGE-(NUMBER)
 ----------------------------------------------------------------------------------------------------------------------------------------------------------------
 Backtracking                       1                     0          0       145.36789       145.36789                       *                                   
 Model                              1         35                                                            0.14817650                             1_GWF-(3,30,7)
 Backtracking                       2                     0          0       6.0821773       6.0821773                       *                                   
 Model                              2         17                                                        4.57223960E-03       *                    1_GWF-(1,38,16)
 ----------------------------------------------------------------------------------------------------------------------------------------------------------------


 2 CALLS TO NUMERICAL SOLUTION IN TIME STEP 1 STRESS PERIOD 24
 52 TOTAL ITERATIONS
1
                            STRESS PERIOD NO.   25, LENGTH =   31.00000    
                            -----------------------------------------------

                              NUMBER OF TIME STEPS =     1

                               MULTIPLIER FOR DELT =     1.000

                            INITIAL TIME STEP SIZE =   31.00000    

 OUTER ITERATION SUMMARY
 ----------------------------------------------------------------------------------------------------------------------------------------------------------------
                                OUTER      INNER  BACKTRACK  BACKTRACK        INCOMING        OUTGOING                    STEP   MAXIMUM CHANGE MODEL-(CELLID) OR
 OUTER ITERATION STEP       ITERATION  ITERATION       FLAG ITERATIONS        RESIDUAL        RESIDUAL  MAXIMUM CHANGE SUCCESS             MODEL-PACKAGE-(NUMBER)
 ----------------------------------------------------------------------------------------------------------------------------------------------------------------
 Backtracking                       1                     0          0       136.35664       136.35664                       *                                   
 Model                              1         27                                                            0.18465088                             1_GWF-(1,30,7)
 Backtracking                       2                     0          0       7.0146660       7.0146660                       *                                   
 Model                              2         19                                                        5.16936079E-03       *                    1_GWF-(1,39,16)
 ----------------------------------------------------------------------------------------------------------------------------------------------------------------


 2 CALLS TO NUMERICAL SOLUTION IN TIME STEP 1 STRESS PERIOD 25
 46 TOTAL ITERATIONS


 Solution SLN_1 summary
 ----------------------------------------------------------------------
 Total formulate time:  .2474499999999991E-01 seconds
 Total solution time:   .1113180000000000 seconds


 MEMORY MANAGER TOTAL STORAGE BY DATA TYPE, IN MEGABYTES
 -------------------------------
                    ALLOCATED   
 DATA TYPE           MEMORY     
 -------------------------------
 Character        5.73300000E-03
 Logical          4.40000000E-05
 Integer          0.60932800    
 Real             1.1713840     
 -------------------------------
 Total            1.7864890     
 -------------------------------


 
 Run end date and time (yyyy/mm/dd hh:mm:ss): 2021/06/02  9:02:57
 Elapsed run time:  0.367 Seconds

WARNING REPORT:

  1. NONLINEAR BLOCK VARIABLE 'OUTER_HCLOSE' IN FILE 'freyberg6.ims' WAS
     DEPRECATED IN VERSION 6.1.1. SETTING OUTER_DVCLOSE TO OUTER_HCLOSE VALUE.
  2. LINEAR BLOCK VARIABLE 'INNER_HCLOSE' IN FILE 'freyberg6.ims' WAS
     DEPRECATED IN VERSION 6.1.1. SETTING INNER_DVCLOSE TO INNER_HCLOSE VALUE.
 Normal termination of simulation.
